# generated using pymatgen
data_O2
_symmetry_space_group_name_H-M   C2/c
_cell_length_a   6.36330038
_cell_length_b   7.99132456
_cell_length_c   3.48178178
_cell_angle_alpha   90.00000000
_cell_angle_beta   109.20963657
_cell_angle_gamma   90.00000000
_symmetry_Int_Tables_number   15
_chemical_formula_structural   O2
_chemical_formula_sum   O16
_cell_volume   167.19466298
_cell_formula_units_Z   8
loop_
 _symmetry_equiv_pos_site_id
 _symmetry_equiv_pos_as_xyz
  1  'x, y, z'
  2  '-x, -y, -z'
  3  '-x, y, -z+1/2'
  4  'x, -y, z+1/2'
  5  'x+1/2, y+1/2, z'
  6  '-x+1/2, -y+1/2, -z'
  7  '-x+1/2, y+1/2, -z+1/2'
  8  'x+1/2, -y+1/2, z+1/2'
loop_
 _atom_site_type_symbol
 _atom_site_label
 _atom_site_symmetry_multiplicity
 _atom_site_fract_x
 _atom_site_fract_y
 _atom_site_fract_z
 _atom_site_occupancy
  O  O0  8  0.06739896  0.16615923  0.65138437  1
  O  O1  8  0.24290508  0.47571717  0.19674451  1
