# generated using pymatgen
data_CeO2
_symmetry_space_group_name_H-M   'P 1'
_cell_length_a   3.86607097
_cell_length_b   3.86607097
_cell_length_c   32.80470000
_cell_angle_alpha   90.00000000
_cell_angle_beta   90.00000000
_cell_angle_gamma   90.00000000
_symmetry_Int_Tables_number   1
_chemical_formula_structural   CeO2
_chemical_formula_sum   'Ce6 O12'
_cell_volume   490.31560441
_cell_formula_units_Z   6
loop_
 _symmetry_equiv_pos_site_id
 _symmetry_equiv_pos_as_xyz
  1  'x, y, z'
loop_
 _atom_site_type_symbol
 _atom_site_label
 _atom_site_symmetry_multiplicity
 _atom_site_fract_x
 _atom_site_fract_y
 _atom_site_fract_z
 _atom_site_occupancy
  Ce  Ce0  1  0.00000000  0.00000000  0.00000000  1.0
  Ce  Ce1  1  0.50000000  0.50000000  0.91666667  1.0
  Ce  Ce2  1  0.00000000  1.00000000  0.83333333  1.0
  Ce  Ce3  1  0.50000000  0.50000000  0.75000000  1.0
  Ce  Ce4  1  0.00000000  1.00000000  0.66666667  1.0
  Ce  Ce5  1  0.50000000  0.50000000  0.58333333  1.0
  O  O6  1  1.00000000  0.50000000  0.95833333  1.0
  O  O7  1  0.50000000  1.00000000  0.95833333  1.0
  O  O8  1  0.50000000  1.00000000  0.87500000  1.0
  O  O9  1  0.00000000  0.50000000  0.87500000  1.0
  O  O10  1  1.00000000  0.50000000  0.79166667  1.0
  O  O11  1  0.50000000  1.00000000  0.79166667  1.0
  O  O12  1  0.50000000  1.00000000  0.70833333  1.0
  O  O13  1  1.00000000  0.50000000  0.70833333  1.0
  O  O14  1  1.00000000  0.50000000  0.62500000  1.0
  O  O15  1  0.50000000  1.00000000  0.62500000  1.0
  O  O16  1  0.50000000  1.00000000  0.54166667  1.0
  O  O17  1  0.00000000  0.50000000  0.54166667  1.0
