# generated using pymatgen
data_CeO2
_symmetry_space_group_name_H-M   'P 1'
_cell_length_a   3.86607097
_cell_length_b   5.46745000
_cell_length_c   30.92856777
_cell_angle_alpha   90.00000000
_cell_angle_beta   90.00000000
_cell_angle_gamma   90.00000000
_symmetry_Int_Tables_number   1
_chemical_formula_structural   CeO2
_chemical_formula_sum   'Ce8 O16'
_cell_volume   653.75413922
_cell_formula_units_Z   8
loop_
 _symmetry_equiv_pos_site_id
 _symmetry_equiv_pos_as_xyz
  1  'x, y, z'
loop_
 _atom_site_type_symbol
 _atom_site_label
 _atom_site_symmetry_multiplicity
 _atom_site_fract_x
 _atom_site_fract_y
 _atom_site_fract_z
 _atom_site_occupancy
  Ce  Ce0  1  0.00000000  0.00000000  0.00000000  1.0
  Ce  Ce1  1  0.50000000  0.50000000  0.06250000  1.0
  Ce  Ce2  1  1.00000000  0.00000000  0.12500000  1.0
  Ce  Ce3  1  0.50000000  0.50000000  0.18750000  1.0
  Ce  Ce4  1  1.00000000  0.00000000  0.25000000  1.0
  Ce  Ce5  1  0.50000000  0.50000000  0.31250000  1.0
  Ce  Ce6  1  0.00000000  1.00000000  0.37500000  1.0
  Ce  Ce7  1  0.50000000  0.50000000  0.43750000  1.0
  O  O8  1  1.00000000  0.25000000  0.06250000  1.0
  O  O9  1  0.50000000  0.25000000  0.00000000  1.0
  O  O10  1  0.50000000  0.75000000  0.00000000  1.0
  O  O11  1  1.00000000  0.75000000  0.06250000  1.0
  O  O12  1  0.00000000  0.25000000  0.18750000  1.0
  O  O13  1  0.50000000  0.25000000  0.12500000  1.0
  O  O14  1  0.50000000  0.75000000  0.12500000  1.0
  O  O15  1  0.00000000  0.75000000  0.18750000  1.0
  O  O16  1  1.00000000  0.25000000  0.31250000  1.0
  O  O17  1  0.50000000  0.25000000  0.25000000  1.0
  O  O18  1  0.50000000  0.75000000  0.25000000  1.0
  O  O19  1  1.00000000  0.75000000  0.31250000  1.0
  O  O20  1  0.00000000  0.25000000  0.43750000  1.0
  O  O21  1  0.50000000  0.25000000  0.37500000  1.0
  O  O22  1  0.50000000  0.75000000  0.37500000  1.0
  O  O23  1  0.00000000  0.75000000  0.43750000  1.0
