# generated using pymatgen
data_CeO2
_symmetry_space_group_name_H-M   'P 1'
_cell_length_a   3.86607097
_cell_length_b   3.86607097
_cell_length_c   31.64515474
_cell_angle_alpha   86.49792301
_cell_angle_beta   86.49792301
_cell_angle_gamma   60.00000000
_symmetry_Int_Tables_number   1
_chemical_formula_structural   CeO2
_chemical_formula_sum   'Ce5 O10'
_cell_volume   408.59633701
_cell_formula_units_Z   5
loop_
 _symmetry_equiv_pos_site_id
 _symmetry_equiv_pos_as_xyz
  1  'x, y, z'
loop_
 _atom_site_type_symbol
 _atom_site_label
 _atom_site_symmetry_multiplicity
 _atom_site_fract_x
 _atom_site_fract_y
 _atom_site_fract_z
 _atom_site_occupancy
  Ce  Ce0  1  1.00000000  0.00000000  1.00000000  1.0
  Ce  Ce1  1  0.30000000  0.30000000  0.10000000  1.0
  Ce  Ce2  1  0.60000000  0.60000000  0.20000000  1.0
  Ce  Ce3  1  0.90000000  0.90000000  0.30000000  1.0
  Ce  Ce4  1  0.20000000  0.20000000  0.40000000  1.0
  O  O5  1  0.32500000  0.32500000  0.02500000  1.0
  O  O6  1  0.97500000  0.97500000  0.07500000  1.0
  O  O7  1  0.62500000  0.62500000  0.12500000  1.0
  O  O8  1  0.27500000  0.27500000  0.17500000  1.0
  O  O9  1  0.92500000  0.92500000  0.22500000  1.0
  O  O10  1  0.57500000  0.57500000  0.27500000  1.0
  O  O11  1  0.22500000  0.22500000  0.32500000  1.0
  O  O12  1  0.87500000  0.87500000  0.37500000  1.0
  O  O13  1  0.52500000  0.52500000  0.42500000  1.0
  O  O14  1  0.17500000  0.17500000  0.47500000  1.0
