# generated using pymatgen
data_CeO2
_symmetry_space_group_name_H-M   'P 1'
_cell_length_a   15.46430000
_cell_length_b   15.46430000
_cell_length_c   121.30730000
_cell_angle_alpha   90.00000000
_cell_angle_beta   90.00000000
_cell_angle_gamma   60.00000000
_symmetry_Int_Tables_number   1
_chemical_formula_structural   CeO2
_chemical_formula_sum   'Ce112 O224'
_cell_volume   25123.38193048
_cell_formula_units_Z   112
loop_
 _symmetry_equiv_pos_site_id
 _symmetry_equiv_pos_as_xyz
  1  'x, y, z'
loop_
 _atom_site_type_symbol
 _atom_site_label
 _atom_site_symmetry_multiplicity
 _atom_site_fract_x
 _atom_site_fract_y
 _atom_site_fract_z
 _atom_site_occupancy
  Ce  Ce0  1  0.00000000  0.00000000  0.00000000  1
  Ce  Ce1  1  0.25000000  0.25000000  0.00000000  1
  Ce  Ce2  1  0.25000000  0.00000000  0.00000000  1
  Ce  Ce3  1  0.00000000  0.25000000  0.00000000  1
  O  O4  1  0.50000000  0.00000000  0.01951617  1
  O  O5  1  0.33333000  0.33333000  0.00650598  1
  O  O6  1  0.33333000  0.08333000  0.00650598  1
  O  O7  1  0.50000000  0.25000000  0.01951617  1
  O  O8  1  0.25000000  0.25000000  0.01951617  1
  O  O9  1  0.08333000  0.08333000  0.00650598  1
  O  O10  1  0.08333000  0.33333000  0.00650598  1
  O  O11  1  0.25000000  0.00000000  0.01951617  1
  Ce  Ce12  1  0.33333000  0.33333000  0.02602215  1
  Ce  Ce13  1  0.08333000  0.08333000  0.02602215  1
  Ce  Ce14  1  0.08333000  0.33333000  0.02602215  1
  Ce  Ce15  1  0.33333000  0.08333000  0.02602215  1
  O  O16  1  0.33333000  0.33333000  0.04553832  1
  O  O17  1  0.16667000  0.16667000  0.03252812  1
  O  O18  1  0.16667000  0.41667000  0.03252812  1
  O  O19  1  0.33333000  0.08333000  0.04553832  1
  O  O20  1  0.08333000  0.08333000  0.04553832  1
  O  O21  1  0.41667000  0.41667000  0.03252812  1
  O  O22  1  0.41667000  0.16667000  0.03252812  1
  O  O23  1  0.08333000  0.33333000  0.04553832  1
  Ce  Ce24  1  0.16667000  0.16667000  0.05204430  1
  Ce  Ce25  1  0.41667000  0.41667000  0.05204430  1
  Ce  Ce26  1  0.41667000  0.16667000  0.05204430  1
  Ce  Ce27  1  0.16667000  0.41667000  0.05204430  1
  O  O28  1  0.16667000  0.16667000  0.07156047  1
  O  O29  1  0.50000000  1.00000000  0.05854852  1
  O  O30  1  0.50000000  0.25000000  0.05854852  1
  O  O31  1  0.16667000  0.41667000  0.56617209  1
  O  O32  1  0.41667000  0.41667000  0.07156047  1
  O  O33  1  0.25000000  0.25000000  0.05854852  1
  O  O34  1  0.25000000  1.00000000  0.05854852  1
  O  O35  1  0.41667000  0.16667000  0.07156047  1
  Ce  Ce36  1  0.50000000  0.00000000  0.07806469  1
  Ce  Ce37  1  0.25000000  0.25000000  0.07806469  1
  Ce  Ce38  1  0.25000000  0.00000000  0.07806469  1
  Ce  Ce39  1  0.50000000  0.25000000  0.07806469  1
  O  O40  1  0.50000000  0.00000000  0.09758262  1
  O  O41  1  0.33333000  0.33333000  0.08457066  1
  O  O42  1  0.33333000  0.08333000  0.08457066  1
  O  O43  1  0.50000000  0.25000000  0.09758262  1
  O  O44  1  0.25000000  0.25000000  0.09758262  1
  O  O45  1  0.08333000  0.08333000  0.08457066  1
  O  O46  1  0.08333000  0.33333000  0.08457066  1
  O  O47  1  0.25000000  0.00000000  0.09758262  1
  Ce  Ce48  1  0.33333000  0.33333000  0.10408683  1
  Ce  Ce49  1  0.08333000  0.08333000  0.10408683  1
  Ce  Ce50  1  0.08333000  0.33333000  0.10408683  1
  Ce  Ce51  1  0.33333000  0.08333000  0.10408683  1
  O  O52  1  0.33333000  0.33333000  0.12360301  1
  O  O53  1  0.16667000  0.16667000  0.11059281  1
  O  O54  1  0.16667000  0.41667000  0.11059281  1
  O  O55  1  0.33333000  0.08333000  0.12360301  1
  O  O56  1  0.08333000  0.08333000  0.12360301  1
  O  O57  1  0.41667000  0.41667000  0.11059281  1
  O  O58  1  0.41667000  0.16667000  0.11059281  1
  O  O59  1  0.08333000  0.33333000  0.12360301  1
  Ce  Ce60  1  0.16667000  0.16667000  0.13010898  1
  Ce  Ce61  1  0.41667000  0.41667000  0.13010898  1
  Ce  Ce62  1  0.41667000  0.16667000  0.13010898  1
  Ce  Ce63  1  0.16667000  0.41667000  0.13010898  1
  O  O64  1  0.16667000  0.16667000  0.14962515  1
  O  O65  1  0.50000000  1.00000000  0.13661496  1
  O  O66  1  0.50000000  0.25000000  0.13661496  1
  O  O67  1  0.16667000  0.41667000  0.14962515  1
  O  O68  1  0.41667000  0.41667000  0.14962515  1
  O  O69  1  0.25000000  0.25000000  0.13661496  1
  O  O70  1  0.25000000  1.00000000  0.13661496  1
  O  O71  1  0.41667000  0.16667000  0.14962515  1
  Ce  Ce72  1  0.50000000  1.00000000  0.15613113  1
  Ce  Ce73  1  0.25000000  0.25000000  0.15613113  1
  Ce  Ce74  1  0.25000000  1.00000000  0.15613113  1
  Ce  Ce75  1  0.50000000  0.25000000  0.15613113  1
  O  O76  1  0.50000000  1.00000000  0.00000000  1
  O  O77  1  0.33333000  0.33333000  0.16263711  1
  O  O78  1  0.33333000  0.08333000  0.16263711  1
  O  O79  1  0.50000000  0.25000000  0.00000000  1
  O  O80  1  0.25000000  0.25000000  0.00000000  1
  O  O81  1  0.08333000  0.08333000  0.16263711  1
  O  O82  1  0.08333000  0.33333000  0.16263711  1
  O  O83  1  0.25000000  1.00000000  0.00000000  1
  Ce  Ce84  1  0.00000000  0.50000000  0.00000000  1
  Ce  Ce85  1  0.25000000  0.75000000  0.00000000  1
  Ce  Ce86  1  0.25000000  0.50000000  0.00000000  1
  Ce  Ce87  1  0.00000000  0.75000000  0.00000000  1
  O  O88  1  0.50000000  0.50000000  0.01951617  1
  O  O89  1  0.33333000  0.83333000  0.00650598  1
  O  O90  1  0.33333000  0.58333000  0.00650598  1
  O  O91  1  0.50000000  0.75000000  0.01951617  1
  O  O92  1  0.25000000  0.75000000  0.01951617  1
  O  O93  1  0.08333000  0.58333000  0.00650598  1
  O  O94  1  0.08333000  0.83333000  0.00650598  1
  O  O95  1  0.25000000  0.50000000  0.01951617  1
  Ce  Ce96  1  0.33333000  0.83333000  0.02602215  1
  Ce  Ce97  1  0.08333000  0.58333000  0.02602215  1
  Ce  Ce98  1  0.08333000  0.83333000  0.02602215  1
  Ce  Ce99  1  0.33333000  0.58333000  0.02602215  1
  O  O100  1  0.33333000  0.83333000  0.04553832  1
  O  O101  1  0.16667000  0.66667000  0.03252812  1
  O  O102  1  0.16667000  0.91667000  0.03252812  1
  O  O103  1  0.33333000  0.58333000  0.04553832  1
  O  O104  1  0.08333000  0.58333000  0.04553832  1
  O  O105  1  0.41667000  0.91667000  0.03252812  1
  O  O106  1  0.41667000  0.66667000  0.03252812  1
  O  O107  1  0.08333000  0.83333000  0.04553832  1
  Ce  Ce108  1  0.16667000  0.66667000  0.05204430  1
  Ce  Ce109  1  0.41667000  0.91667000  0.05204430  1
  Ce  Ce110  1  0.41667000  0.66667000  0.05204430  1
  Ce  Ce111  1  0.16667000  0.91667000  0.05204430  1
  O  O112  1  0.16667000  0.66667000  0.07156047  1
  O  O113  1  0.50000000  0.50000000  0.05854852  1
  O  O114  1  0.50000000  0.75000000  0.05854852  1
  O  O115  1  0.16667000  0.91667000  0.07156047  1
  O  O116  1  0.41667000  0.91667000  0.07156047  1
  O  O117  1  0.25000000  0.75000000  0.05854852  1
  O  O118  1  0.25000000  0.50000000  0.05854852  1
  O  O119  1  0.41667000  0.66667000  0.07156047  1
  Ce  Ce120  1  0.50000000  0.50000000  0.07806469  1
  Ce  Ce121  1  0.25000000  0.75000000  0.07806469  1
  Ce  Ce122  1  0.25000000  0.50000000  0.07806469  1
  Ce  Ce123  1  0.50000000  0.75000000  0.07806469  1
  O  O124  1  0.50000000  0.50000000  0.09758262  1
  O  O125  1  0.33333000  0.83333000  0.08457066  1
  O  O126  1  0.33333000  0.58333000  0.08457066  1
  O  O127  1  0.50000000  0.75000000  0.09758262  1
  O  O128  1  0.25000000  0.75000000  0.09758262  1
  O  O129  1  0.08333000  0.58333000  0.08457066  1
  O  O130  1  0.08333000  0.83333000  0.08457066  1
  O  O131  1  0.25000000  0.50000000  0.09758262  1
  Ce  Ce132  1  0.33333000  0.83333000  0.10408683  1
  Ce  Ce133  1  0.08333000  0.58333000  0.10408683  1
  Ce  Ce134  1  0.08333000  0.83333000  0.10408683  1
  Ce  Ce135  1  0.33333000  0.58333000  0.10408683  1
  O  O136  1  0.33333000  0.83333000  0.12360301  1
  O  O137  1  0.16667000  0.66667000  0.11059281  1
  O  O138  1  0.16667000  0.91667000  0.11059281  1
  O  O139  1  0.33333000  0.58333000  0.12360301  1
  O  O140  1  0.08333000  0.58333000  0.12360301  1
  O  O141  1  0.41667000  0.91667000  0.11059281  1
  O  O142  1  0.41667000  0.66667000  0.11059281  1
  O  O143  1  0.08333000  0.83333000  0.12360301  1
  Ce  Ce144  1  0.16667000  0.66667000  0.13010898  1
  Ce  Ce145  1  0.41667000  0.91667000  0.13010898  1
  Ce  Ce146  1  0.41667000  0.66667000  0.13010898  1
  Ce  Ce147  1  0.16667000  0.91667000  0.13010898  1
  O  O148  1  0.16667000  0.66667000  0.14962515  1
  O  O149  1  0.50000000  0.50000000  0.13661496  1
  O  O150  1  0.50000000  0.75000000  0.13661496  1
  O  O151  1  0.16667000  0.91667000  0.14962515  1
  O  O152  1  0.41667000  0.91667000  0.14962515  1
  O  O153  1  0.25000000  0.75000000  0.13661496  1
  O  O154  1  0.25000000  0.50000000  0.13661496  1
  O  O155  1  0.41667000  0.66667000  0.14962515  1
  Ce  Ce156  1  0.50000000  0.50000000  0.15613113  1
  Ce  Ce157  1  0.25000000  0.75000000  0.15613113  1
  Ce  Ce158  1  0.25000000  0.50000000  0.15613113  1
  Ce  Ce159  1  0.50000000  0.75000000  0.15613113  1
  O  O160  1  0.50000000  0.50000000  0.00000000  1
  O  O161  1  0.33333000  0.83333000  0.16263711  1
  O  O162  1  0.33333000  0.58333000  0.16263711  1
  O  O163  1  0.50000000  0.75000000  0.00000000  1
  O  O164  1  0.25000000  0.75000000  0.00000000  1
  O  O165  1  0.08333000  0.58333000  0.16263711  1
  O  O166  1  0.08333000  0.83333000  0.16263711  1
  O  O167  1  0.25000000  0.50000000  0.00000000  1
  Ce  Ce168  1  0.50000000  0.00000000  0.00000000  1
  Ce  Ce169  1  0.75000000  0.25000000  0.00000000  1
  Ce  Ce170  1  0.75000000  0.00000000  0.00000000  1
  Ce  Ce171  1  0.50000000  0.25000000  0.00000000  1
  O  O172  1  0.00000000  0.00000000  0.01951617  1
  O  O173  1  0.83333000  0.33333000  0.00650598  1
  O  O174  1  0.83333000  0.08333000  0.00650598  1
  O  O175  1  0.00000000  0.25000000  0.01951617  1
  O  O176  1  0.75000000  0.25000000  0.01951617  1
  O  O177  1  0.58333000  0.08333000  0.00650598  1
  O  O178  1  0.58333000  0.33333000  0.00650598  1
  O  O179  1  0.75000000  0.00000000  0.01951617  1
  Ce  Ce180  1  0.83333000  0.33333000  0.02602215  1
  Ce  Ce181  1  0.58333000  0.08333000  0.02602215  1
  Ce  Ce182  1  0.58333000  0.33333000  0.02602215  1
  Ce  Ce183  1  0.83333000  0.08333000  0.02602215  1
  O  O184  1  0.83333000  0.33333000  0.04553832  1
  O  O185  1  0.66667000  0.16667000  0.03252812  1
  O  O186  1  0.66667000  0.41667000  0.03252812  1
  O  O187  1  0.83333000  0.08333000  0.04553832  1
  O  O188  1  0.58333000  0.08333000  0.04553832  1
  O  O189  1  0.91667000  0.41667000  0.03252812  1
  O  O190  1  0.91667000  0.16667000  0.03252812  1
  O  O191  1  0.58333000  0.33333000  0.04553832  1
  Ce  Ce192  1  0.66667000  0.16667000  0.05204430  1
  Ce  Ce193  1  0.91667000  0.41667000  0.05204430  1
  Ce  Ce194  1  0.91667000  0.16667000  0.05204430  1
  Ce  Ce195  1  0.66667000  0.41667000  0.05204430  1
  O  O196  1  0.66667000  0.16667000  0.07156047  1
  O  O197  1  0.00000000  1.00000000  0.05854852  1
  O  O198  1  1.00000000  0.25000000  0.05854852  1
  O  O199  1  0.66667000  0.41667000  0.07156047  1
  O  O200  1  0.91667000  0.41667000  0.07156047  1
  O  O201  1  0.75000000  0.25000000  0.05854852  1
  O  O202  1  0.75000000  1.00000000  0.05854852  1
  O  O203  1  0.91667000  0.16667000  0.07156047  1
  Ce  Ce204  1  1.00000000  0.00000000  0.07806469  1
  Ce  Ce205  1  0.75000000  0.25000000  0.07806469  1
  Ce  Ce206  1  0.75000000  0.00000000  0.07806469  1
  Ce  Ce207  1  1.00000000  0.25000000  0.07806469  1
  O  O208  1  1.00000000  0.00000000  0.09758262  1
  O  O209  1  0.83333000  0.33333000  0.08457066  1
  O  O210  1  0.83333000  0.08333000  0.08457066  1
  O  O211  1  0.00000000  0.25000000  0.09758262  1
  O  O212  1  0.75000000  0.25000000  0.09758262  1
  O  O213  1  0.58333000  0.08333000  0.08457066  1
  O  O214  1  0.58333000  0.33333000  0.08457066  1
  O  O215  1  0.75000000  0.00000000  0.09758262  1
  Ce  Ce216  1  0.83333000  0.33333000  0.10408683  1
  Ce  Ce217  1  0.58333000  0.08333000  0.10408683  1
  Ce  Ce218  1  0.58333000  0.33333000  0.10408683  1
  Ce  Ce219  1  0.83333000  0.08333000  0.10408683  1
  O  O220  1  0.83333000  0.33333000  0.12360301  1
  O  O221  1  0.66667000  0.16667000  0.11059281  1
  O  O222  1  0.66667000  0.41667000  0.11059281  1
  O  O223  1  0.83333000  0.08333000  0.12360301  1
  O  O224  1  0.58333000  0.08333000  0.12360301  1
  O  O225  1  0.91667000  0.41667000  0.11059281  1
  O  O226  1  0.91667000  0.16667000  0.11059281  1
  O  O227  1  0.58333000  0.33333000  0.12360301  1
  Ce  Ce228  1  0.66667000  0.16667000  0.13010898  1
  Ce  Ce229  1  0.91667000  0.41667000  0.13010898  1
  Ce  Ce230  1  0.91667000  0.16667000  0.13010898  1
  Ce  Ce231  1  0.66667000  0.41667000  0.13010898  1
  O  O232  1  0.66667000  0.16667000  0.14962515  1
  O  O233  1  0.00000000  1.00000000  0.13661496  1
  O  O234  1  0.00000000  0.25000000  0.13661496  1
  O  O235  1  0.66667000  0.41667000  0.14962515  1
  O  O236  1  0.91667000  0.41667000  0.14962515  1
  O  O237  1  0.75000000  0.25000000  0.13661496  1
  O  O238  1  0.75000000  1.00000000  0.13661496  1
  O  O239  1  0.91667000  0.16667000  0.14962515  1
  Ce  Ce240  1  0.00000000  1.00000000  0.15613113  1
  Ce  Ce241  1  0.75000000  0.25000000  0.15613113  1
  Ce  Ce242  1  0.75000000  1.00000000  0.15613113  1
  Ce  Ce243  1  0.00000000  0.25000000  0.15613113  1
  O  O244  1  0.00000000  1.00000000  0.00000000  1
  O  O245  1  0.83333000  0.33333000  0.16263711  1
  O  O246  1  0.83333000  0.08333000  0.16263711  1
  O  O247  1  0.00000000  0.25000000  0.00000000  1
  O  O248  1  0.75000000  0.25000000  0.00000000  1
  O  O249  1  0.58333000  0.08333000  0.16263711  1
  O  O250  1  0.58333000  0.33333000  0.16263711  1
  O  O251  1  0.75000000  1.00000000  0.00000000  1
  Ce  Ce252  1  0.50000000  0.50000000  0.00000000  1
  Ce  Ce253  1  0.75000000  0.75000000  0.00000000  1
  Ce  Ce254  1  0.75000000  0.50000000  0.00000000  1
  Ce  Ce255  1  0.50000000  0.75000000  0.00000000  1
  O  O256  1  0.00000000  0.50000000  0.01951617  1
  O  O257  1  0.83333000  0.83333000  0.00650598  1
  O  O258  1  0.83333000  0.58333000  0.00650598  1
  O  O259  1  0.00000000  0.75000000  0.01951617  1
  O  O260  1  0.75000000  0.75000000  0.01951617  1
  O  O261  1  0.58333000  0.58333000  0.00650598  1
  O  O262  1  0.58333000  0.83333000  0.00650598  1
  O  O263  1  0.75000000  0.50000000  0.01951617  1
  Ce  Ce264  1  0.83333000  0.83333000  0.02602215  1
  Ce  Ce265  1  0.58333000  0.58333000  0.02602215  1
  Ce  Ce266  1  0.58333000  0.83333000  0.02602215  1
  Ce  Ce267  1  0.83333000  0.58333000  0.02602215  1
  O  O268  1  0.83333000  0.83333000  0.04553832  1
  O  O269  1  0.66667000  0.66667000  0.03252812  1
  O  O270  1  0.66667000  0.91667000  0.03252812  1
  O  O271  1  0.83333000  0.58333000  0.04553832  1
  O  O272  1  0.58333000  0.58333000  0.04553832  1
  O  O273  1  0.91667000  0.91667000  0.03252812  1
  O  O274  1  0.91667000  0.66667000  0.03252812  1
  O  O275  1  0.58333000  0.83333000  0.04553832  1
  Ce  Ce276  1  0.66667000  0.66667000  0.05204430  1
  Ce  Ce277  1  0.91667000  0.91667000  0.05204430  1
  Ce  Ce278  1  0.91667000  0.66667000  0.05204430  1
  Ce  Ce279  1  0.66667000  0.91667000  0.05204430  1
  O  O280  1  0.66667000  0.66667000  0.07156047  1
  O  O281  1  1.00000000  0.50000000  0.05854852  1
  O  O282  1  0.00000000  0.75000000  0.05854852  1
  O  O283  1  0.66667000  0.91667000  0.07156047  1
  O  O284  1  0.91667000  0.91667000  0.07156047  1
  O  O285  1  0.75000000  0.75000000  0.05854852  1
  O  O286  1  0.75000000  0.50000000  0.05854852  1
  O  O287  1  0.91667000  0.66667000  0.07156047  1
  Ce  Ce288  1  1.00000000  0.50000000  0.07806469  1
  Ce  Ce289  1  0.75000000  0.75000000  0.07806469  1
  Ce  Ce290  1  0.75000000  0.50000000  0.07806469  1
  Ce  Ce291  1  0.00000000  0.75000000  0.07806469  1
  O  O292  1  1.00000000  0.50000000  0.09758262  1
  O  O293  1  0.83333000  0.83333000  0.08457066  1
  O  O294  1  0.83333000  0.58333000  0.08457066  1
  O  O295  1  0.00000000  0.75000000  0.09758262  1
  O  O296  1  0.75000000  0.75000000  0.09758262  1
  O  O297  1  0.58333000  0.58333000  0.08457066  1
  O  O298  1  0.58333000  0.83333000  0.08457066  1
  O  O299  1  0.75000000  0.50000000  0.09758262  1
  Ce  Ce300  1  0.83333000  0.83333000  0.10408683  1
  Ce  Ce301  1  0.58333000  0.58333000  0.10408683  1
  Ce  Ce302  1  0.58333000  0.83333000  0.10408683  1
  Ce  Ce303  1  0.83333000  0.58333000  0.10408683  1
  O  O304  1  0.83333000  0.83333000  0.12360301  1
  O  O305  1  0.66667000  0.66667000  0.11059281  1
  O  O306  1  0.66667000  0.91667000  0.11059281  1
  O  O307  1  0.83333000  0.58333000  0.12360301  1
  O  O308  1  0.58333000  0.58333000  0.12360301  1
  O  O309  1  0.91667000  0.91667000  0.11059281  1
  O  O310  1  0.91667000  0.66667000  0.11059281  1
  O  O311  1  0.58333000  0.83333000  0.12360301  1
  Ce  Ce312  1  0.66667000  0.66667000  0.13010898  1
  Ce  Ce313  1  0.91667000  0.91667000  0.13010898  1
  Ce  Ce314  1  0.91667000  0.66667000  0.13010898  1
  Ce  Ce315  1  0.66667000  0.91667000  0.13010898  1
  O  O316  1  0.66667000  0.66667000  0.14962515  1
  O  O317  1  1.00000000  0.50000000  0.13661496  1
  O  O318  1  1.00000000  0.75000000  0.13661496  1
  O  O319  1  0.66667000  0.91667000  0.14962515  1
  O  O320  1  0.91667000  0.91667000  0.14962515  1
  O  O321  1  0.75000000  0.75000000  0.13661496  1
  O  O322  1  0.75000000  0.50000000  0.13661496  1
  O  O323  1  0.91667000  0.66667000  0.14962515  1
  Ce  Ce324  1  1.00000000  0.50000000  0.15613113  1
  Ce  Ce325  1  0.75000000  0.75000000  0.15613113  1
  Ce  Ce326  1  0.75000000  0.50000000  0.15613113  1
  Ce  Ce327  1  1.00000000  0.75000000  0.15613113  1
  O  O328  1  1.00000000  0.50000000  0.00000000  1
  O  O329  1  0.83333000  0.83333000  0.16263711  1
  O  O330  1  0.83333000  0.58333000  0.16263711  1
  O  O331  1  1.00000000  0.75000000  0.00000000  1
  O  O332  1  0.75000000  0.75000000  0.00000000  1
  O  O333  1  0.58333000  0.58333000  0.16263711  1
  O  O334  1  0.58333000  0.83333000  0.16263711  1
  O  O335  1  0.75000000  0.50000000  0.00000000  1
