# generated using pymatgen
data_CeO2
_symmetry_space_group_name_H-M   'P 1'
_cell_length_a   15.46428487
_cell_length_b   15.46428487
_cell_length_c   145.22231545
_cell_angle_alpha   90.00000000
_cell_angle_beta   89.23732071
_cell_angle_gamma   60.00000000
_symmetry_Int_Tables_number   1
_chemical_formula_structural   CeO2
_chemical_formula_sum   'Ce112 O224'
_cell_volume   30072.69616754
_cell_formula_units_Z   112
loop_
 _symmetry_equiv_pos_site_id
 _symmetry_equiv_pos_as_xyz
  1  'x, y, z'
loop_
 _atom_site_type_symbol
 _atom_site_label
 _atom_site_symmetry_multiplicity
 _atom_site_fract_x
 _atom_site_fract_y
 _atom_site_fract_z
 _atom_site_occupancy
  Ce  Ce0  1  0.16847826  0.16576087  0.98913043  1
  Ce  Ce1  1  0.16847826  0.41576087  0.98913043  1
  Ce  Ce2  1  0.16847826  0.66576087  0.98913043  1
  Ce  Ce3  1  0.16847826  0.91576087  0.98913043  1
  Ce  Ce4  1  0.41847826  0.16576087  0.98913043  1
  Ce  Ce5  1  0.41847826  0.41576087  0.98913043  1
  Ce  Ce6  1  0.41847826  0.66576087  0.98913043  1
  Ce  Ce7  1  0.41847826  0.91576087  0.98913043  1
  Ce  Ce8  1  0.66847826  0.16576087  0.98913043  1
  Ce  Ce9  1  0.66847826  0.41576087  0.98913043  1
  Ce  Ce10  1  0.66847826  0.66576087  0.98913043  1
  Ce  Ce11  1  0.66847826  0.91576087  0.98913043  1
  Ce  Ce12  1  0.91847826  0.16576087  0.98913043  1
  Ce  Ce13  1  0.91847826  0.41576087  0.98913043  1
  Ce  Ce14  1  0.91847826  0.66576087  0.98913043  1
  Ce  Ce15  1  0.91847826  0.91576087  0.98913043  1
  Ce  Ce16  1  0.00543478  0.24728261  0.96739130  1
  Ce  Ce17  1  0.00543478  0.49728261  0.96739130  1
  Ce  Ce18  1  0.00543478  0.74728261  0.96739130  1
  Ce  Ce19  1  0.00543478  0.99728261  0.96739130  1
  Ce  Ce20  1  0.25543478  0.24728261  0.96739130  1
  Ce  Ce21  1  0.25543478  0.49728261  0.96739130  1
  Ce  Ce22  1  0.25543478  0.74728261  0.96739130  1
  Ce  Ce23  1  0.25543478  0.99728261  0.96739130  1
  Ce  Ce24  1  0.50543478  0.24728261  0.96739130  1
  Ce  Ce25  1  0.50543478  0.49728261  0.96739130  1
  Ce  Ce26  1  0.50543478  0.74728261  0.96739130  1
  Ce  Ce27  1  0.50543478  0.99728261  0.96739130  1
  Ce  Ce28  1  0.75543478  0.24728261  0.96739130  1
  Ce  Ce29  1  0.75543478  0.49728261  0.96739130  1
  Ce  Ce30  1  0.75543478  0.74728261  0.96739130  1
  Ce  Ce31  1  0.75543478  0.99728261  0.96739130  1
  Ce  Ce32  1  0.09239130  0.07880435  0.94565217  1
  Ce  Ce33  1  0.09239130  0.32880435  0.94565217  1
  Ce  Ce34  1  0.09239130  0.57880435  0.94565217  1
  Ce  Ce35  1  0.09239130  0.82880435  0.94565217  1
  Ce  Ce36  1  0.34239130  0.07880435  0.94565217  1
  Ce  Ce37  1  0.34239130  0.32880435  0.94565217  1
  Ce  Ce38  1  0.34239130  0.57880435  0.94565217  1
  Ce  Ce39  1  0.34239130  0.82880435  0.94565217  1
  Ce  Ce40  1  0.59239130  0.07880435  0.94565217  1
  Ce  Ce41  1  0.59239130  0.32880435  0.94565217  1
  Ce  Ce42  1  0.59239130  0.57880435  0.94565217  1
  Ce  Ce43  1  0.59239130  0.82880435  0.94565217  1
  Ce  Ce44  1  0.84239130  0.07880435  0.94565217  1
  Ce  Ce45  1  0.84239130  0.32880435  0.94565217  1
  Ce  Ce46  1  0.84239130  0.57880435  0.94565217  1
  Ce  Ce47  1  0.84239130  0.82880435  0.94565217  1
  Ce  Ce48  1  0.17934783  0.16032609  0.92391304  1
  Ce  Ce49  1  0.17934783  0.41032609  0.92391304  1
  Ce  Ce50  1  0.17934783  0.66032609  0.92391304  1
  Ce  Ce51  1  0.17934783  0.91032609  0.92391304  1
  Ce  Ce52  1  0.42934783  0.16032609  0.92391304  1
  Ce  Ce53  1  0.42934783  0.41032609  0.92391304  1
  Ce  Ce54  1  0.42934783  0.66032609  0.92391304  1
  Ce  Ce55  1  0.42934783  0.91032609  0.92391304  1
  Ce  Ce56  1  0.67934783  0.16032609  0.92391304  1
  Ce  Ce57  1  0.67934783  0.41032609  0.92391304  1
  Ce  Ce58  1  0.67934783  0.66032609  0.92391304  1
  Ce  Ce59  1  0.67934783  0.91032609  0.92391304  1
  Ce  Ce60  1  0.92934783  0.16032609  0.92391304  1
  Ce  Ce61  1  0.92934783  0.41032609  0.92391304  1
  Ce  Ce62  1  0.92934783  0.66032609  0.92391304  1
  Ce  Ce63  1  0.92934783  0.91032609  0.92391304  1
  Ce  Ce64  1  0.01630435  0.24184783  0.90217391  1
  Ce  Ce65  1  0.01630435  0.49184783  0.90217391  1
  Ce  Ce66  1  0.01630435  0.74184783  0.90217391  1
  Ce  Ce67  1  0.01630435  0.99184783  0.90217391  1
  Ce  Ce68  1  0.26630435  0.24184783  0.90217391  1
  Ce  Ce69  1  0.26630435  0.49184783  0.90217391  1
  Ce  Ce70  1  0.26630435  0.74184783  0.90217391  1
  Ce  Ce71  1  0.26630435  0.99184783  0.90217391  1
  Ce  Ce72  1  0.51630435  0.24184783  0.90217391  1
  Ce  Ce73  1  0.51630435  0.49184783  0.90217391  1
  Ce  Ce74  1  0.51630435  0.74184783  0.90217391  1
  Ce  Ce75  1  0.51630435  0.99184783  0.90217391  1
  Ce  Ce76  1  0.76630435  0.24184783  0.90217391  1
  Ce  Ce77  1  0.76630435  0.49184783  0.90217391  1
  Ce  Ce78  1  0.76630435  0.74184783  0.90217391  1
  Ce  Ce79  1  0.76630435  0.99184783  0.90217391  1
  Ce  Ce80  1  0.10326087  0.07336957  0.88043478  1
  Ce  Ce81  1  0.10326087  0.32336957  0.88043478  1
  Ce  Ce82  1  0.10326087  0.57336957  0.88043478  1
  Ce  Ce83  1  0.10326087  0.82336957  0.88043478  1
  Ce  Ce84  1  0.35326087  0.07336957  0.88043478  1
  Ce  Ce85  1  0.35326087  0.32336957  0.88043478  1
  Ce  Ce86  1  0.35326087  0.57336957  0.88043478  1
  Ce  Ce87  1  0.35326087  0.82336957  0.88043478  1
  Ce  Ce88  1  0.60326087  0.07336957  0.88043478  1
  Ce  Ce89  1  0.60326087  0.32336957  0.88043478  1
  Ce  Ce90  1  0.60326087  0.57336957  0.88043478  1
  Ce  Ce91  1  0.60326087  0.82336957  0.88043478  1
  Ce  Ce92  1  0.85326087  0.07336957  0.88043478  1
  Ce  Ce93  1  0.85326087  0.32336957  0.88043478  1
  Ce  Ce94  1  0.85326087  0.57336957  0.88043478  1
  Ce  Ce95  1  0.85326087  0.82336957  0.88043478  1
  Ce  Ce96  1  0.19021739  0.15489130  0.85869565  1
  Ce  Ce97  1  0.19021739  0.40489130  0.85869565  1
  Ce  Ce98  1  0.19021739  0.65489130  0.85869565  1
  Ce  Ce99  1  0.19021739  0.90489130  0.85869565  1
  Ce  Ce100  1  0.44021739  0.15489130  0.85869565  1
  Ce  Ce101  1  0.44021739  0.40489130  0.85869565  1
  Ce  Ce102  1  0.44021739  0.65489130  0.85869565  1
  Ce  Ce103  1  0.44021739  0.90489130  0.85869565  1
  Ce  Ce104  1  0.69021739  0.15489130  0.85869565  1
  Ce  Ce105  1  0.69021739  0.40489130  0.85869565  1
  Ce  Ce106  1  0.69021739  0.65489130  0.85869565  1
  Ce  Ce107  1  0.69021739  0.90489130  0.85869565  1
  Ce  Ce108  1  0.94021739  0.15489130  0.85869565  1
  Ce  Ce109  1  0.94021739  0.40489130  0.85869565  1
  Ce  Ce110  1  0.94021739  0.65489130  0.85869565  1
  Ce  Ce111  1  0.94021739  0.90489130  0.85869565  1
  O  O112  1  0.08423913  0.08288043  0.99456522  1
  O  O113  1  0.08423913  0.33288043  0.99456522  1
  O  O114  1  0.08423913  0.58288043  0.99456522  1
  O  O115  1  0.08423913  0.83288043  0.99456522  1
  O  O116  1  0.33423913  0.08288043  0.99456522  1
  O  O117  1  0.33423913  0.33288043  0.99456522  1
  O  O118  1  0.33423913  0.58288043  0.99456522  1
  O  O119  1  0.33423913  0.83288043  0.99456522  1
  O  O120  1  0.58423913  0.08288043  0.99456522  1
  O  O121  1  0.58423913  0.33288043  0.99456522  1
  O  O122  1  0.58423913  0.58288043  0.99456522  1
  O  O123  1  0.58423913  0.83288043  0.99456522  1
  O  O124  1  0.83423913  0.08288043  0.99456522  1
  O  O125  1  0.83423913  0.33288043  0.99456522  1
  O  O126  1  0.83423913  0.58288043  0.99456522  1
  O  O127  1  0.83423913  0.83288043  0.99456522  1
  O  O128  1  0.00271739  0.24864130  0.98369565  1
  O  O129  1  0.00271739  0.49864130  0.98369565  1
  O  O130  1  0.00271739  0.74864130  0.98369565  1
  O  O131  1  0.00271739  0.99864130  0.98369565  1
  O  O132  1  0.25271739  0.24864130  0.98369565  1
  O  O133  1  0.25271739  0.49864130  0.98369565  1
  O  O134  1  0.25271739  0.74864130  0.98369565  1
  O  O135  1  0.25271739  0.99864130  0.98369565  1
  O  O136  1  0.50271739  0.24864130  0.98369565  1
  O  O137  1  0.50271739  0.49864130  0.98369565  1
  O  O138  1  0.50271739  0.74864130  0.98369565  1
  O  O139  1  0.50271739  0.99864130  0.98369565  1
  O  O140  1  0.75271739  0.24864130  0.98369565  1
  O  O141  1  0.75271739  0.49864130  0.98369565  1
  O  O142  1  0.75271739  0.74864130  0.98369565  1
  O  O143  1  0.75271739  0.99864130  0.98369565  1
  O  O144  1  0.17119565  0.16440217  0.97282609  1
  O  O145  1  0.17119565  0.41440217  0.97282609  1
  O  O146  1  0.17119565  0.66440217  0.97282609  1
  O  O147  1  0.17119565  0.91440217  0.97282609  1
  O  O148  1  0.42119565  0.16440217  0.97282609  1
  O  O149  1  0.42119565  0.41440217  0.97282609  1
  O  O150  1  0.42119565  0.66440217  0.97282609  1
  O  O151  1  0.42119565  0.91440217  0.97282609  1
  O  O152  1  0.67119565  0.16440217  0.97282609  1
  O  O153  1  0.67119565  0.41440217  0.97282609  1
  O  O154  1  0.67119565  0.66440217  0.97282609  1
  O  O155  1  0.67119565  0.91440217  0.97282609  1
  O  O156  1  0.92119565  0.16440217  0.97282609  1
  O  O157  1  0.92119565  0.41440217  0.97282609  1
  O  O158  1  0.92119565  0.66440217  0.97282609  1
  O  O159  1  0.92119565  0.91440217  0.97282609  1
  O  O160  1  0.08967391  0.08016304  0.96195652  1
  O  O161  1  0.08967391  0.33016304  0.96195652  1
  O  O162  1  0.08967391  0.58016304  0.96195652  1
  O  O163  1  0.08967391  0.83016304  0.96195652  1
  O  O164  1  0.33967391  0.08016304  0.96195652  1
  O  O165  1  0.33967391  0.33016304  0.96195652  1
  O  O166  1  0.33967391  0.58016304  0.96195652  1
  O  O167  1  0.33967391  0.83016304  0.96195652  1
  O  O168  1  0.58967391  0.08016304  0.96195652  1
  O  O169  1  0.58967391  0.33016304  0.96195652  1
  O  O170  1  0.58967391  0.58016304  0.96195652  1
  O  O171  1  0.58967391  0.83016304  0.96195652  1
  O  O172  1  0.83967391  0.08016304  0.96195652  1
  O  O173  1  0.83967391  0.33016304  0.96195652  1
  O  O174  1  0.83967391  0.58016304  0.96195652  1
  O  O175  1  0.83967391  0.83016304  0.96195652  1
  O  O176  1  0.00815217  0.24592391  0.95108696  1
  O  O177  1  0.00815217  0.49592391  0.95108696  1
  O  O178  1  0.00815217  0.74592391  0.95108696  1
  O  O179  1  0.00815217  0.99592391  0.95108696  1
  O  O180  1  0.25815217  0.24592391  0.95108696  1
  O  O181  1  0.25815217  0.49592391  0.95108696  1
  O  O182  1  0.25815217  0.74592391  0.95108696  1
  O  O183  1  0.25815217  0.99592391  0.95108696  1
  O  O184  1  0.50815217  0.24592391  0.95108696  1
  O  O185  1  0.50815217  0.49592391  0.95108696  1
  O  O186  1  0.50815217  0.74592391  0.95108696  1
  O  O187  1  0.50815217  0.99592391  0.95108696  1
  O  O188  1  0.75815217  0.24592391  0.95108696  1
  O  O189  1  0.75815217  0.49592391  0.95108696  1
  O  O190  1  0.75815217  0.74592391  0.95108696  1
  O  O191  1  0.75815217  0.99592391  0.95108696  1
  O  O192  1  0.17663043  0.16168478  0.94021739  1
  O  O193  1  0.17663043  0.41168478  0.94021739  1
  O  O194  1  0.17663043  0.66168478  0.94021739  1
  O  O195  1  0.17663043  0.91168478  0.94021739  1
  O  O196  1  0.42663043  0.16168478  0.94021739  1
  O  O197  1  0.42663043  0.41168478  0.94021739  1
  O  O198  1  0.42663043  0.66168478  0.94021739  1
  O  O199  1  0.42663043  0.91168478  0.94021739  1
  O  O200  1  0.67663043  0.16168478  0.94021739  1
  O  O201  1  0.67663043  0.41168478  0.94021739  1
  O  O202  1  0.67663043  0.66168478  0.94021739  1
  O  O203  1  0.67663043  0.91168478  0.94021739  1
  O  O204  1  0.92663043  0.16168478  0.94021739  1
  O  O205  1  0.92663043  0.41168478  0.94021739  1
  O  O206  1  0.92663043  0.66168478  0.94021739  1
  O  O207  1  0.92663043  0.91168478  0.94021739  1
  O  O208  1  0.09510870  0.07744565  0.92934783  1
  O  O209  1  0.09510870  0.32744565  0.92934783  1
  O  O210  1  0.09510870  0.57744565  0.92934783  1
  O  O211  1  0.09510870  0.82744565  0.92934783  1
  O  O212  1  0.34510870  0.07744565  0.92934783  1
  O  O213  1  0.34510870  0.32744565  0.92934783  1
  O  O214  1  0.34510870  0.57744565  0.92934783  1
  O  O215  1  0.34510870  0.82744565  0.92934783  1
  O  O216  1  0.59510870  0.07744565  0.92934783  1
  O  O217  1  0.59510870  0.32744565  0.92934783  1
  O  O218  1  0.59510870  0.57744565  0.92934783  1
  O  O219  1  0.59510870  0.82744565  0.92934783  1
  O  O220  1  0.84510870  0.07744565  0.92934783  1
  O  O221  1  0.84510870  0.32744565  0.92934783  1
  O  O222  1  0.84510870  0.57744565  0.92934783  1
  O  O223  1  0.84510870  0.82744565  0.92934783  1
  O  O224  1  0.01358696  0.24320652  0.91847826  1
  O  O225  1  0.01358696  0.49320652  0.91847826  1
  O  O226  1  0.01358696  0.74320652  0.91847826  1
  O  O227  1  0.01358696  0.99320652  0.91847826  1
  O  O228  1  0.26358696  0.24320652  0.91847826  1
  O  O229  1  0.26358696  0.49320652  0.91847826  1
  O  O230  1  0.26358696  0.74320652  0.91847826  1
  O  O231  1  0.26358696  0.99320652  0.91847826  1
  O  O232  1  0.51358696  0.24320652  0.91847826  1
  O  O233  1  0.59332460  0.45333770  0.44005242  1
  O  O234  1  0.51358696  0.74320652  0.91847826  1
  O  O235  1  0.51358696  0.99320652  0.91847826  1
  O  O236  1  0.76358696  0.24320652  0.91847826  1
  O  O237  1  0.76358696  0.49320652  0.91847826  1
  O  O238  1  0.76358696  0.74320652  0.91847826  1
  O  O239  1  0.76358696  0.99320652  0.91847826  1
  O  O240  1  0.18206522  0.15896739  0.90760870  1
  O  O241  1  0.18206522  0.40896739  0.90760870  1
  O  O242  1  0.18206522  0.65896739  0.90760870  1
  O  O243  1  0.18206522  0.90896739  0.90760870  1
  O  O244  1  0.43206522  0.15896739  0.90760870  1
  O  O245  1  0.43206522  0.40896739  0.90760870  1
  O  O246  1  0.43206522  0.65896739  0.90760870  1
  O  O247  1  0.43206522  0.90896739  0.90760870  1
  O  O248  1  0.68206522  0.15896739  0.90760870  1
  O  O249  1  0.68206522  0.40896739  0.90760870  1
  O  O250  1  0.68206522  0.65896739  0.90760870  1
  O  O251  1  0.68206522  0.90896739  0.90760870  1
  O  O252  1  0.93206522  0.15896739  0.90760870  1
  O  O253  1  0.93206522  0.40896739  0.90760870  1
  O  O254  1  0.93206522  0.65896739  0.90760870  1
  O  O255  1  0.93206522  0.90896739  0.90760870  1
  O  O256  1  0.10054348  0.07472826  0.89673913  1
  O  O257  1  0.10054348  0.32472826  0.89673913  1
  O  O258  1  0.10054348  0.57472826  0.89673913  1
  O  O259  1  0.10054348  0.82472826  0.89673913  1
  O  O260  1  0.35054348  0.07472826  0.89673913  1
  O  O261  1  0.35054348  0.32472826  0.89673913  1
  O  O262  1  0.35054348  0.57472826  0.89673913  1
  O  O263  1  0.35054348  0.82472826  0.89673913  1
  O  O264  1  0.60054348  0.07472826  0.89673913  1
  O  O265  1  0.60054348  0.32472826  0.89673913  1
  O  O266  1  0.60054348  0.57472826  0.89673913  1
  O  O267  1  0.60054348  0.82472826  0.89673913  1
  O  O268  1  0.85054348  0.07472826  0.89673913  1
  O  O269  1  0.85054348  0.32472826  0.89673913  1
  O  O270  1  0.85054348  0.57472826  0.89673913  1
  O  O271  1  0.85054348  0.82472826  0.89673913  1
  O  O272  1  0.01902174  0.24048913  0.88586957  1
  O  O273  1  0.01902174  0.49048913  0.88586957  1
  O  O274  1  0.01902174  0.74048913  0.88586957  1
  O  O275  1  0.01902174  0.99048913  0.88586957  1
  O  O276  1  0.26902174  0.24048913  0.88586957  1
  O  O277  1  0.26902174  0.49048913  0.88586957  1
  O  O278  1  0.26902174  0.74048913  0.88586957  1
  O  O279  1  0.26902174  0.99048913  0.88586957  1
  O  O280  1  0.51902174  0.24048913  0.88586957  1
  O  O281  1  0.51902174  0.49048913  0.88586957  1
  O  O282  1  0.51902174  0.74048913  0.88586957  1
  O  O283  1  0.51902174  0.99048913  0.88586957  1
  O  O284  1  0.76902174  0.24048913  0.88586957  1
  O  O285  1  0.76902174  0.49048913  0.88586957  1
  O  O286  1  0.76902174  0.74048913  0.88586957  1
  O  O287  1  0.76902174  0.99048913  0.88586957  1
  O  O288  1  0.18750000  0.15625000  0.87500000  1
  O  O289  1  0.18750000  0.40625000  0.87500000  1
  O  O290  1  0.18750000  0.65625000  0.87500000  1
  O  O291  1  0.18750000  0.90625000  0.87500000  1
  O  O292  1  0.43750000  0.15625000  0.87500000  1
  O  O293  1  0.43750000  0.40625000  0.87500000  1
  O  O294  1  0.43750000  0.65625000  0.87500000  1
  O  O295  1  0.43750000  0.90625000  0.87500000  1
  O  O296  1  0.68750000  0.15625000  0.87500000  1
  O  O297  1  0.68750000  0.40625000  0.87500000  1
  O  O298  1  0.68750000  0.65625000  0.87500000  1
  O  O299  1  0.68750000  0.90625000  0.87500000  1
  O  O300  1  0.93750000  0.15625000  0.87500000  1
  O  O301  1  0.93750000  0.40625000  0.87500000  1
  O  O302  1  0.93750000  0.65625000  0.87500000  1
  O  O303  1  0.93750000  0.90625000  0.87500000  1
  O  O304  1  0.10597826  0.07201087  0.86413043  1
  O  O305  1  0.10597826  0.32201087  0.86413043  1
  O  O306  1  0.10597826  0.57201087  0.86413043  1
  O  O307  1  0.10597826  0.82201087  0.86413043  1
  O  O308  1  0.35597826  0.07201087  0.86413043  1
  O  O309  1  0.35597826  0.32201087  0.86413043  1
  O  O310  1  0.35597826  0.57201087  0.86413043  1
  O  O311  1  0.35597826  0.82201087  0.86413043  1
  O  O312  1  0.60597826  0.07201087  0.86413043  1
  O  O313  1  0.60597826  0.32201087  0.86413043  1
  O  O314  1  0.60597826  0.57201087  0.86413043  1
  O  O315  1  0.60597826  0.82201087  0.86413043  1
  O  O316  1  0.85597826  0.07201087  0.86413043  1
  O  O317  1  0.85597826  0.32201087  0.86413043  1
  O  O318  1  0.85597826  0.57201087  0.86413043  1
  O  O319  1  0.85597826  0.82201087  0.86413043  1
  O  O320  1  0.02445652  0.23777174  0.85326087  1
  O  O321  1  0.02445652  0.48777174  0.85326087  1
  O  O322  1  0.02445652  0.73777174  0.85326087  1
  O  O323  1  0.02445652  0.98777174  0.85326087  1
  O  O324  1  0.27445652  0.23777174  0.85326087  1
  O  O325  1  0.27445652  0.48777174  0.85326087  1
  O  O326  1  0.27445652  0.73777174  0.85326087  1
  O  O327  1  0.27445652  0.98777174  0.85326087  1
  O  O328  1  0.52445652  0.23777174  0.85326087  1
  O  O329  1  0.52445652  0.48777174  0.85326087  1
  O  O330  1  0.52445652  0.73777174  0.85326087  1
  O  O331  1  0.52445652  0.98777174  0.85326087  1
  O  O332  1  0.77445652  0.23777174  0.85326087  1
  O  O333  1  0.77445652  0.48777174  0.85326087  1
  O  O334  1  0.77445652  0.73777174  0.85326087  1
  O  O335  1  0.77445652  0.98777174  0.85326087  1
