data_image0
_chemical_formula_structural       Ce4O8Ce4O8Ce4O8Ce4O8Ce4O8Ce4O8Ce4O8Ce4O8Ce4O8Ce4O8Ce4O8Ce4O8Ce4O8Ce4O8Ce4O8Ce4O8Ce4O8Ce4O8Ce4O8Ce4O8
_chemical_formula_sum              "Ce80 O160"
_cell_length_a       7.73214
_cell_length_b       5.46745
_cell_length_c       105.388
_cell_angle_alpha    90
_cell_angle_beta     90
_cell_angle_gamma    90

_space_group_name_H-M_alt    "P 1"
_space_group_IT_number       1

loop_
  _space_group_symop_operation_xyz
  'x, y, z'

loop_
  _atom_site_type_symbol
  _atom_site_label
  _atom_site_symmetry_multiplicity
  _atom_site_fract_x
  _atom_site_fract_y
  _atom_site_fract_z
  _atom_site_occupancy
  Ce  Ce1       1.0  0.00000  0.00000  0.14233  1.0000
  Ce  Ce2       1.0  0.50000  0.00000  0.14233  1.0000
  Ce  Ce3       1.0  0.25000  0.50000  0.16067  1.0000
  Ce  Ce4       1.0  0.75000  0.50000  0.16067  1.0000
  O   O1        1.0  1.00000  0.75000  0.16067  1.0000
  O   O2        1.0  0.50000  0.25000  0.16067  1.0000
  O   O3        1.0  0.75000  0.75000  0.14233  1.0000
  O   O4        1.0  0.25000  0.25000  0.14233  1.0000
  O   O5        1.0  0.50000  0.75000  0.16067  1.0000
  O   O6        1.0  1.00000  0.25000  0.16067  1.0000
  O   O7        1.0  0.25000  0.75000  0.14233  1.0000
  O   O8        1.0  0.75000  0.25000  0.14233  1.0000
  Ce  Ce5       1.0  0.50000  0.00000  0.17901  1.0000
  Ce  Ce6       1.0  1.00000  0.00000  0.17901  1.0000
  Ce  Ce7       1.0  0.75000  0.50000  0.19736  1.0000
  Ce  Ce8       1.0  0.25000  0.50000  0.19736  1.0000
  O   O9        1.0  0.50000  0.75000  0.19736  1.0000
  O   O10       1.0  1.00000  0.25000  0.19736  1.0000
  O   O11       1.0  0.25000  0.75000  0.17901  1.0000
  O   O12       1.0  0.75000  0.25000  0.17901  1.0000
  O   O13       1.0  1.00000  0.75000  0.19736  1.0000
  O   O14       1.0  0.50000  0.25000  0.19736  1.0000
  O   O15       1.0  0.75000  0.75000  0.17901  1.0000
  O   O16       1.0  0.25000  0.25000  0.17901  1.0000
  Ce  Ce9       1.0  1.00000  0.00000  0.21570  1.0000
  Ce  Ce10      1.0  0.50000  0.00000  0.21570  1.0000
  Ce  Ce11      1.0  0.25000  0.50000  0.23404  1.0000
  Ce  Ce12      1.0  0.75000  0.50000  0.23404  1.0000
  O   O17       1.0  1.00000  0.75000  0.23404  1.0000
  O   O18       1.0  0.50000  0.25000  0.23404  1.0000
  O   O19       1.0  0.75000  0.75000  0.21570  1.0000
  O   O20       1.0  0.25000  0.25000  0.21570  1.0000
  O   O21       1.0  0.50000  0.75000  0.23404  1.0000
  O   O22       1.0  1.00000  0.25000  0.23404  1.0000
  O   O23       1.0  0.25000  0.75000  0.21570  1.0000
  O   O24       1.0  0.75000  0.25000  0.21570  1.0000
  Ce  Ce13      1.0  0.50000  0.00000  0.25238  1.0000
  Ce  Ce14      1.0  1.00000  0.00000  0.25238  1.0000
  Ce  Ce15      1.0  0.75000  0.50000  0.27072  1.0000
  Ce  Ce16      1.0  0.25000  0.50000  0.27072  1.0000
  O   O25       1.0  0.50000  0.75000  0.27072  1.0000
  O   O26       1.0  1.00000  0.25000  0.27072  1.0000
  O   O27       1.0  0.25000  0.75000  0.25238  1.0000
  O   O28       1.0  0.75000  0.25000  0.25238  1.0000
  O   O29       1.0  1.00000  0.75000  0.27072  1.0000
  O   O30       1.0  0.50000  0.25000  0.27072  1.0000
  O   O31       1.0  0.75000  0.75000  0.25238  1.0000
  O   O32       1.0  0.25000  0.25000  0.25238  1.0000
  Ce  Ce17      1.0  1.00000  0.00000  0.28907  1.0000
  Ce  Ce18      1.0  0.50000  0.00000  0.28907  1.0000
  Ce  Ce19      1.0  0.25000  0.50000  0.30741  1.0000
  Ce  Ce20      1.0  0.75000  0.50000  0.30741  1.0000
  O   O33       1.0  1.00000  0.75000  0.30741  1.0000
  O   O34       1.0  0.50000  0.25000  0.30741  1.0000
  O   O35       1.0  0.75000  0.75000  0.28907  1.0000
  O   O36       1.0  0.25000  0.25000  0.28907  1.0000
  O   O37       1.0  0.50000  0.75000  0.30741  1.0000
  O   O38       1.0  1.00000  0.25000  0.30741  1.0000
  O   O39       1.0  0.25000  0.75000  0.28907  1.0000
  O   O40       1.0  0.75000  0.25000  0.28907  1.0000
  Ce  Ce21      1.0  0.50000  0.00000  0.32575  1.0000
  Ce  Ce22      1.0  1.00000  0.00000  0.32575  1.0000
  Ce  Ce23      1.0  0.75000  0.50000  0.34409  1.0000
  Ce  Ce24      1.0  0.25000  0.50000  0.34409  1.0000
  O   O41       1.0  0.50000  0.75000  0.34409  1.0000
  O   O42       1.0  1.00000  0.25000  0.34409  1.0000
  O   O43       1.0  0.25000  0.75000  0.32575  1.0000
  O   O44       1.0  0.75000  0.25000  0.32575  1.0000
  O   O45       1.0  1.00000  0.75000  0.34409  1.0000
  O   O46       1.0  0.50000  0.25000  0.34409  1.0000
  O   O47       1.0  0.75000  0.75000  0.32575  1.0000
  O   O48       1.0  0.25000  0.25000  0.32575  1.0000
  Ce  Ce25      1.0  1.00000  0.00000  0.36243  1.0000
  Ce  Ce26      1.0  0.50000  0.00000  0.36243  1.0000
  Ce  Ce27      1.0  0.25000  0.50000  0.38078  1.0000
  Ce  Ce28      1.0  0.75000  0.50000  0.38078  1.0000
  O   O49       1.0  1.00000  0.75000  0.38078  1.0000
  O   O50       1.0  0.50000  0.25000  0.38078  1.0000
  O   O51       1.0  0.75000  0.75000  0.36243  1.0000
  O   O52       1.0  0.25000  0.25000  0.36243  1.0000
  O   O53       1.0  0.50000  0.75000  0.38078  1.0000
  O   O54       1.0  1.00000  0.25000  0.38078  1.0000
  O   O55       1.0  0.25000  0.75000  0.36243  1.0000
  O   O56       1.0  0.75000  0.25000  0.36243  1.0000
  Ce  Ce29      1.0  0.50000  0.00000  0.39912  1.0000
  Ce  Ce30      1.0  1.00000  0.00000  0.39912  1.0000
  Ce  Ce31      1.0  0.75000  0.50000  0.41746  1.0000
  Ce  Ce32      1.0  0.25000  0.50000  0.41746  1.0000
  O   O57       1.0  0.50000  0.75000  0.41746  1.0000
  O   O58       1.0  1.00000  0.25000  0.41746  1.0000
  O   O59       1.0  0.25000  0.75000  0.39912  1.0000
  O   O60       1.0  0.75000  0.25000  0.39912  1.0000
  O   O61       1.0  1.00000  0.75000  0.41746  1.0000
  O   O62       1.0  0.50000  0.25000  0.41746  1.0000
  O   O63       1.0  0.75000  0.75000  0.39912  1.0000
  O   O64       1.0  0.25000  0.25000  0.39912  1.0000
  Ce  Ce33      1.0  1.00000  0.00000  0.43580  1.0000
  Ce  Ce34      1.0  0.50000  0.00000  0.43580  1.0000
  Ce  Ce35      1.0  0.25000  0.50000  0.45414  1.0000
  Ce  Ce36      1.0  0.75000  0.50000  0.45414  1.0000
  O   O65       1.0  1.00000  0.75000  0.45414  1.0000
  O   O66       1.0  0.50000  0.25000  0.45414  1.0000
  O   O67       1.0  0.75000  0.75000  0.43580  1.0000
  O   O68       1.0  0.25000  0.25000  0.43580  1.0000
  O   O69       1.0  0.50000  0.75000  0.45414  1.0000
  O   O70       1.0  1.00000  0.25000  0.45414  1.0000
  O   O71       1.0  0.25000  0.75000  0.43580  1.0000
  O   O72       1.0  0.75000  0.25000  0.43580  1.0000
  Ce  Ce37      1.0  0.50000  0.00000  0.47249  1.0000
  Ce  Ce38      1.0  1.00000  0.00000  0.47249  1.0000
  Ce  Ce39      1.0  0.75000  0.50000  0.49083  1.0000
  Ce  Ce40      1.0  0.25000  0.50000  0.49083  1.0000
  O   O73       1.0  0.50000  0.75000  0.49083  1.0000
  O   O74       1.0  1.00000  0.25000  0.49083  1.0000
  O   O75       1.0  0.25000  0.75000  0.47249  1.0000
  O   O76       1.0  0.75000  0.25000  0.47249  1.0000
  O   O77       1.0  1.00000  0.75000  0.49083  1.0000
  O   O78       1.0  0.50000  0.25000  0.49083  1.0000
  O   O79       1.0  0.75000  0.75000  0.47249  1.0000
  O   O80       1.0  0.25000  0.25000  0.47249  1.0000
  Ce  Ce41      1.0  1.00000  0.00000  0.50917  1.0000
  Ce  Ce42      1.0  0.50000  0.00000  0.50917  1.0000
  Ce  Ce43      1.0  0.25000  0.50000  0.52751  1.0000
  Ce  Ce44      1.0  0.75000  0.50000  0.52751  1.0000
  O   O81       1.0  1.00000  0.75000  0.52751  1.0000
  O   O82       1.0  0.50000  0.25000  0.52751  1.0000
  O   O83       1.0  0.75000  0.75000  0.50917  1.0000
  O   O84       1.0  0.25000  0.25000  0.50917  1.0000
  O   O85       1.0  0.50000  0.75000  0.52751  1.0000
  O   O86       1.0  1.00000  0.25000  0.52751  1.0000
  O   O87       1.0  0.25000  0.75000  0.50917  1.0000
  O   O88       1.0  0.75000  0.25000  0.50917  1.0000
  Ce  Ce45      1.0  0.50000  0.00000  0.54586  1.0000
  Ce  Ce46      1.0  1.00000  0.00000  0.54586  1.0000
  Ce  Ce47      1.0  0.75000  0.50000  0.56420  1.0000
  Ce  Ce48      1.0  0.25000  0.50000  0.56420  1.0000
  O   O89       1.0  0.50000  0.75000  0.56420  1.0000
  O   O90       1.0  1.00000  0.25000  0.56420  1.0000
  O   O91       1.0  0.25000  0.75000  0.54586  1.0000
  O   O92       1.0  0.75000  0.25000  0.54586  1.0000
  O   O93       1.0  1.00000  0.75000  0.56420  1.0000
  O   O94       1.0  0.50000  0.25000  0.56420  1.0000
  O   O95       1.0  0.75000  0.75000  0.54586  1.0000
  O   O96       1.0  0.25000  0.25000  0.54586  1.0000
  Ce  Ce49      1.0  1.00000  0.00000  0.58254  1.0000
  Ce  Ce50      1.0  0.50000  0.00000  0.58254  1.0000
  Ce  Ce51      1.0  0.25000  0.50000  0.60088  1.0000
  Ce  Ce52      1.0  0.75000  0.50000  0.60088  1.0000
  O   O97       1.0  1.00000  0.75000  0.60088  1.0000
  O   O98       1.0  0.50000  0.25000  0.60088  1.0000
  O   O99       1.0  0.75000  0.75000  0.58254  1.0000
  O   O100      1.0  0.25000  0.25000  0.58254  1.0000
  O   O101      1.0  0.50000  0.75000  0.60088  1.0000
  O   O102      1.0  1.00000  0.25000  0.60088  1.0000
  O   O103      1.0  0.25000  0.75000  0.58254  1.0000
  O   O104      1.0  0.75000  0.25000  0.58254  1.0000
  Ce  Ce53      1.0  0.50000  0.00000  0.61922  1.0000
  Ce  Ce54      1.0  1.00000  0.00000  0.61922  1.0000
  Ce  Ce55      1.0  0.75000  0.50000  0.63757  1.0000
  Ce  Ce56      1.0  0.25000  0.50000  0.63757  1.0000
  O   O105      1.0  0.50000  0.75000  0.63757  1.0000
  O   O106      1.0  1.00000  0.25000  0.63757  1.0000
  O   O107      1.0  0.25000  0.75000  0.61922  1.0000
  O   O108      1.0  0.75000  0.25000  0.61922  1.0000
  O   O109      1.0  1.00000  0.75000  0.63757  1.0000
  O   O110      1.0  0.50000  0.25000  0.63757  1.0000
  O   O111      1.0  0.75000  0.75000  0.61922  1.0000
  O   O112      1.0  0.25000  0.25000  0.61922  1.0000
  Ce  Ce57      1.0  1.00000  0.00000  0.65591  1.0000
  Ce  Ce58      1.0  0.50000  0.00000  0.65591  1.0000
  Ce  Ce59      1.0  0.25000  0.50000  0.67425  1.0000
  Ce  Ce60      1.0  0.75000  0.50000  0.67425  1.0000
  O   O113      1.0  1.00000  0.75000  0.67425  1.0000
  O   O114      1.0  0.50000  0.25000  0.67425  1.0000
  O   O115      1.0  0.75000  0.75000  0.65591  1.0000
  O   O116      1.0  0.25000  0.25000  0.65591  1.0000
  O   O117      1.0  0.50000  0.75000  0.67425  1.0000
  O   O118      1.0  1.00000  0.25000  0.67425  1.0000
  O   O119      1.0  0.25000  0.75000  0.65591  1.0000
  O   O120      1.0  0.75000  0.25000  0.65591  1.0000
  Ce  Ce61      1.0  0.50000  0.00000  0.69259  1.0000
  Ce  Ce62      1.0  1.00000  0.00000  0.69259  1.0000
  Ce  Ce63      1.0  0.75000  0.50000  0.71093  1.0000
  Ce  Ce64      1.0  0.25000  0.50000  0.71093  1.0000
  O   O121      1.0  0.50000  0.75000  0.71093  1.0000
  O   O122      1.0  1.00000  0.25000  0.71093  1.0000
  O   O123      1.0  0.25000  0.75000  0.69259  1.0000
  O   O124      1.0  0.75000  0.25000  0.69259  1.0000
  O   O125      1.0  1.00000  0.75000  0.71093  1.0000
  O   O126      1.0  0.50000  0.25000  0.71093  1.0000
  O   O127      1.0  0.75000  0.75000  0.69259  1.0000
  O   O128      1.0  0.25000  0.25000  0.69259  1.0000
  Ce  Ce65      1.0  1.00000  0.00000  0.72928  1.0000
  Ce  Ce66      1.0  0.50000  0.00000  0.72928  1.0000
  Ce  Ce67      1.0  0.25000  0.50000  0.74762  1.0000
  Ce  Ce68      1.0  0.75000  0.50000  0.74762  1.0000
  O   O129      1.0  1.00000  0.75000  0.74762  1.0000
  O   O130      1.0  0.50000  0.25000  0.74762  1.0000
  O   O131      1.0  0.75000  0.75000  0.72928  1.0000
  O   O132      1.0  0.25000  0.25000  0.72928  1.0000
  O   O133      1.0  0.50000  0.75000  0.74762  1.0000
  O   O134      1.0  1.00000  0.25000  0.74762  1.0000
  O   O135      1.0  0.25000  0.75000  0.72928  1.0000
  O   O136      1.0  0.75000  0.25000  0.72928  1.0000
  Ce  Ce69      1.0  0.50000  0.00000  0.76596  1.0000
  Ce  Ce70      1.0  1.00000  0.00000  0.76596  1.0000
  Ce  Ce71      1.0  0.75000  0.50000  0.78430  1.0000
  Ce  Ce72      1.0  0.25000  0.50000  0.78430  1.0000
  O   O137      1.0  0.50000  0.75000  0.78430  1.0000
  O   O138      1.0  1.00000  0.25000  0.78430  1.0000
  O   O139      1.0  0.25000  0.75000  0.76596  1.0000
  O   O140      1.0  0.75000  0.25000  0.76596  1.0000
  O   O141      1.0  1.00000  0.75000  0.78430  1.0000
  O   O142      1.0  0.50000  0.25000  0.78430  1.0000
  O   O143      1.0  0.75000  0.75000  0.76596  1.0000
  O   O144      1.0  0.25000  0.25000  0.76596  1.0000
  Ce  Ce73      1.0  1.00000  0.00000  0.80264  1.0000
  Ce  Ce74      1.0  0.50000  0.00000  0.80264  1.0000
  Ce  Ce75      1.0  0.25000  0.50000  0.82099  1.0000
  Ce  Ce76      1.0  0.75000  0.50000  0.82099  1.0000
  O   O145      1.0  1.00000  0.75000  0.82099  1.0000
  O   O146      1.0  0.50000  0.25000  0.82099  1.0000
  O   O147      1.0  0.75000  0.75000  0.80264  1.0000
  O   O148      1.0  0.25000  0.25000  0.80264  1.0000
  O   O149      1.0  0.50000  0.75000  0.82099  1.0000
  O   O150      1.0  1.00000  0.25000  0.82099  1.0000
  O   O151      1.0  0.25000  0.75000  0.80264  1.0000
  O   O152      1.0  0.75000  0.25000  0.80264  1.0000
  Ce  Ce77      1.0  0.50000  0.00000  0.83933  1.0000
  Ce  Ce78      1.0  1.00000  0.00000  0.83933  1.0000
  Ce  Ce79      1.0  0.75000  0.50000  0.85767  1.0000
  Ce  Ce80      1.0  0.25000  0.50000  0.85767  1.0000
  O   O153      1.0  0.50000  0.75000  0.85767  1.0000
  O   O154      1.0  1.00000  0.25000  0.85767  1.0000
  O   O155      1.0  0.25000  0.75000  0.83933  1.0000
  O   O156      1.0  0.75000  0.25000  0.83933  1.0000
  O   O157      1.0  1.00000  0.75000  0.85767  1.0000
  O   O158      1.0  0.50000  0.25000  0.85767  1.0000
  O   O159      1.0  0.75000  0.75000  0.83933  1.0000
  O   O160      1.0  0.25000  0.25000  0.83933  1.0000
