data_image0
_chemical_formula_structural       O4Ce4O8Ce4O8Ce4O8Ce4O8Ce4O8Ce4O8Ce4O8Ce4O8Ce4O8Ce4O8Ce4O8Ce4O8Ce4O8Ce4O4
_chemical_formula_sum              "O112 Ce56"
_cell_length_a       7.73214
_cell_length_b       7.73214
_cell_length_c       79.717
_cell_angle_alpha    90
_cell_angle_beta     90
_cell_angle_gamma    60

_space_group_name_H-M_alt    "P 1"
_space_group_IT_number       1

loop_
  _space_group_symop_operation_xyz
  'x, y, z'

loop_
  _atom_site_type_symbol
  _atom_site_label
  _atom_site_symmetry_multiplicity
  _atom_site_fract_x
  _atom_site_fract_y
  _atom_site_fract_z
  _atom_site_occupancy
  O   O1        1.0  0.66667  0.66667  0.25746  1.0000
  O   O2        1.0  0.66667  0.16667  0.25746  1.0000
  O   O3        1.0  0.16667  0.16667  0.25746  1.0000
  O   O4        1.0  0.16667  0.66667  0.25746  1.0000
  Ce  Ce1       1.0  0.33333  0.33333  0.26736  1.0000
  Ce  Ce2       1.0  0.83333  0.83333  0.26736  1.0000
  Ce  Ce3       1.0  0.83333  0.33333  0.26736  1.0000
  Ce  Ce4       1.0  0.33333  0.83333  0.26736  1.0000
  O   O5        1.0  0.33333  0.33333  0.29706  1.0000
  O   O6        1.0  0.00000  1.00000  0.27726  1.0000
  O   O7        1.0  0.00000  0.50000  0.27726  1.0000
  O   O8        1.0  0.33333  0.83333  0.29706  1.0000
  O   O9        1.0  0.83333  0.83333  0.29706  1.0000
  O   O10       1.0  0.50000  0.50000  0.27726  1.0000
  O   O11       1.0  0.50000  1.00000  0.27726  1.0000
  O   O12       1.0  0.83333  0.33333  0.29706  1.0000
  Ce  Ce5       1.0  0.00000  1.00000  0.30696  1.0000
  Ce  Ce6       1.0  0.50000  0.50000  0.30696  1.0000
  Ce  Ce7       1.0  0.50000  1.00000  0.30696  1.0000
  Ce  Ce8       1.0  0.00000  0.50000  0.30696  1.0000
  O   O13       1.0  0.00000  1.00000  0.33666  1.0000
  O   O14       1.0  0.66667  0.66667  0.31686  1.0000
  O   O15       1.0  0.66667  0.16667  0.31686  1.0000
  O   O16       1.0  0.00000  0.50000  0.33666  1.0000
  O   O17       1.0  0.50000  0.50000  0.33666  1.0000
  O   O18       1.0  0.16667  0.16667  0.31686  1.0000
  O   O19       1.0  0.16667  0.66667  0.31686  1.0000
  O   O20       1.0  0.50000  1.00000  0.33666  1.0000
  Ce  Ce9       1.0  0.66667  0.66667  0.34656  1.0000
  Ce  Ce10      1.0  0.16667  0.16667  0.34656  1.0000
  Ce  Ce11      1.0  0.16667  0.66667  0.34656  1.0000
  Ce  Ce12      1.0  0.66667  0.16667  0.34656  1.0000
  O   O21       1.0  0.66667  0.66667  0.37626  1.0000
  O   O22       1.0  0.33333  0.33333  0.35646  1.0000
  O   O23       1.0  0.33333  0.83333  0.35646  1.0000
  O   O24       1.0  0.66667  0.16667  0.37626  1.0000
  O   O25       1.0  0.16667  0.16667  0.37626  1.0000
  O   O26       1.0  0.83333  0.83333  0.35646  1.0000
  O   O27       1.0  0.83333  0.33333  0.35646  1.0000
  O   O28       1.0  0.16667  0.66667  0.37626  1.0000
  Ce  Ce13      1.0  0.33333  0.33333  0.38616  1.0000
  Ce  Ce14      1.0  0.83333  0.83333  0.38616  1.0000
  Ce  Ce15      1.0  0.83333  0.33333  0.38616  1.0000
  Ce  Ce16      1.0  0.33333  0.83333  0.38616  1.0000
  O   O29       1.0  0.33333  0.33333  0.41585  1.0000
  O   O30       1.0  0.00000  1.00000  0.39606  1.0000
  O   O31       1.0  0.00000  0.50000  0.39606  1.0000
  O   O32       1.0  0.33333  0.83333  0.41585  1.0000
  O   O33       1.0  0.83333  0.83333  0.41585  1.0000
  O   O34       1.0  0.50000  0.50000  0.39606  1.0000
  O   O35       1.0  0.50000  1.00000  0.39606  1.0000
  O   O36       1.0  0.83333  0.33333  0.41585  1.0000
  Ce  Ce17      1.0  0.00000  1.00000  0.42575  1.0000
  Ce  Ce18      1.0  0.50000  0.50000  0.42575  1.0000
  Ce  Ce19      1.0  0.50000  1.00000  0.42575  1.0000
  Ce  Ce20      1.0  0.00000  0.50000  0.42575  1.0000
  O   O37       1.0  0.00000  1.00000  0.45545  1.0000
  O   O38       1.0  0.66667  0.66667  0.43565  1.0000
  O   O39       1.0  0.66667  0.16667  0.43565  1.0000
  O   O40       1.0  0.00000  0.50000  0.45545  1.0000
  O   O41       1.0  0.50000  0.50000  0.45545  1.0000
  O   O42       1.0  0.16667  0.16667  0.43565  1.0000
  O   O43       1.0  0.16667  0.66667  0.43565  1.0000
  O   O44       1.0  0.50000  1.00000  0.45545  1.0000
  Ce  Ce21      1.0  0.66667  0.66667  0.46535  1.0000
  Ce  Ce22      1.0  0.16667  0.16667  0.46535  1.0000
  Ce  Ce23      1.0  0.16667  0.66667  0.46535  1.0000
  Ce  Ce24      1.0  0.66667  0.16667  0.46535  1.0000
  O   O45       1.0  0.66667  0.66667  0.49505  1.0000
  O   O46       1.0  0.33333  0.33333  0.47525  1.0000
  O   O47       1.0  0.33333  0.83333  0.47525  1.0000
  O   O48       1.0  0.66667  0.16667  0.49505  1.0000
  O   O49       1.0  0.16667  0.16667  0.49505  1.0000
  O   O50       1.0  0.83333  0.83333  0.47525  1.0000
  O   O51       1.0  0.83333  0.33333  0.47525  1.0000
  O   O52       1.0  0.16667  0.66667  0.49505  1.0000
  Ce  Ce25      1.0  0.33333  0.33333  0.50495  1.0000
  Ce  Ce26      1.0  0.83333  0.83333  0.50495  1.0000
  Ce  Ce27      1.0  0.83333  0.33333  0.50495  1.0000
  Ce  Ce28      1.0  0.33333  0.83333  0.50495  1.0000
  O   O53       1.0  0.33333  0.33333  0.53465  1.0000
  O   O54       1.0  0.00000  1.00000  0.51485  1.0000
  O   O55       1.0  0.00000  0.50000  0.51485  1.0000
  O   O56       1.0  0.33333  0.83333  0.53465  1.0000
  O   O57       1.0  0.83333  0.83333  0.53465  1.0000
  O   O58       1.0  0.50000  0.50000  0.51485  1.0000
  O   O59       1.0  0.50000  1.00000  0.51485  1.0000
  O   O60       1.0  0.83333  0.33333  0.53465  1.0000
  Ce  Ce29      1.0  0.00000  1.00000  0.54455  1.0000
  Ce  Ce30      1.0  0.50000  0.50000  0.54455  1.0000
  Ce  Ce31      1.0  0.50000  1.00000  0.54455  1.0000
  Ce  Ce32      1.0  0.00000  0.50000  0.54455  1.0000
  O   O61       1.0  0.00000  1.00000  0.57425  1.0000
  O   O62       1.0  0.66667  0.66667  0.55445  1.0000
  O   O63       1.0  0.66667  0.16667  0.55445  1.0000
  O   O64       1.0  0.00000  0.50000  0.57425  1.0000
  O   O65       1.0  0.50000  0.50000  0.57425  1.0000
  O   O66       1.0  0.16667  0.16667  0.55445  1.0000
  O   O67       1.0  0.16667  0.66667  0.55445  1.0000
  O   O68       1.0  0.50000  1.00000  0.57425  1.0000
  Ce  Ce33      1.0  0.66667  0.66667  0.58415  1.0000
  Ce  Ce34      1.0  0.16667  0.16667  0.58415  1.0000
  Ce  Ce35      1.0  0.16667  0.66667  0.58415  1.0000
  Ce  Ce36      1.0  0.66667  0.16667  0.58415  1.0000
  O   O69       1.0  0.66667  0.66667  0.61384  1.0000
  O   O70       1.0  0.33333  0.33333  0.59405  1.0000
  O   O71       1.0  0.33333  0.83333  0.59405  1.0000
  O   O72       1.0  0.66667  0.16667  0.61384  1.0000
  O   O73       1.0  0.16667  0.16667  0.61384  1.0000
  O   O74       1.0  0.83333  0.83333  0.59405  1.0000
  O   O75       1.0  0.83333  0.33333  0.59405  1.0000
  O   O76       1.0  0.16667  0.66667  0.61384  1.0000
  Ce  Ce37      1.0  0.33333  0.33333  0.62374  1.0000
  Ce  Ce38      1.0  0.83333  0.83333  0.62374  1.0000
  Ce  Ce39      1.0  0.83333  0.33333  0.62374  1.0000
  Ce  Ce40      1.0  0.33333  0.83333  0.62374  1.0000
  O   O77       1.0  0.33333  0.33333  0.65344  1.0000
  O   O78       1.0  0.00000  1.00000  0.63364  1.0000
  O   O79       1.0  0.00000  0.50000  0.63364  1.0000
  O   O80       1.0  0.33333  0.83333  0.65344  1.0000
  O   O81       1.0  0.83333  0.83333  0.65344  1.0000
  O   O82       1.0  0.50000  0.50000  0.63364  1.0000
  O   O83       1.0  0.50000  1.00000  0.63364  1.0000
  O   O84       1.0  0.83333  0.33333  0.65344  1.0000
  Ce  Ce41      1.0  0.00000  1.00000  0.66334  1.0000
  Ce  Ce42      1.0  0.50000  0.50000  0.66334  1.0000
  Ce  Ce43      1.0  0.50000  1.00000  0.66334  1.0000
  Ce  Ce44      1.0  0.00000  0.50000  0.66334  1.0000
  O   O85       1.0  0.00000  1.00000  0.69304  1.0000
  O   O86       1.0  0.66667  0.66667  0.67324  1.0000
  O   O87       1.0  0.66667  0.16667  0.67324  1.0000
  O   O88       1.0  0.00000  0.50000  0.69304  1.0000
  O   O89       1.0  0.50000  0.50000  0.69304  1.0000
  O   O90       1.0  0.16667  0.16667  0.67324  1.0000
  O   O91       1.0  0.16667  0.66667  0.67324  1.0000
  O   O92       1.0  0.50000  1.00000  0.69304  1.0000
  Ce  Ce45      1.0  0.66667  0.66667  0.70294  1.0000
  Ce  Ce46      1.0  0.16667  0.16667  0.70294  1.0000
  Ce  Ce47      1.0  0.16667  0.66667  0.70294  1.0000
  Ce  Ce48      1.0  0.66667  0.16667  0.70294  1.0000
  O   O93       1.0  0.66667  0.66667  0.73264  1.0000
  O   O94       1.0  0.33333  0.33333  0.71284  1.0000
  O   O95       1.0  0.33333  0.83333  0.71284  1.0000
  O   O96       1.0  0.66667  0.16667  0.73264  1.0000
  O   O97       1.0  0.16667  0.16667  0.73264  1.0000
  O   O98       1.0  0.83333  0.83333  0.71284  1.0000
  O   O99       1.0  0.83333  0.33333  0.71284  1.0000
  O   O100      1.0  0.16667  0.66667  0.73264  1.0000
  Ce  Ce49      1.0  0.33333  0.33333  0.74254  1.0000
  Ce  Ce50      1.0  0.83333  0.83333  0.74254  1.0000
  Ce  Ce51      1.0  0.83333  0.33333  0.74254  1.0000
  Ce  Ce52      1.0  0.33333  0.83333  0.74254  1.0000
  O   O101      1.0  0.33333  0.33333  0.77224  1.0000
  O   O102      1.0  0.00000  1.00000  0.75244  1.0000
  O   O103      1.0  0.00000  0.50000  0.75244  1.0000
  O   O104      1.0  0.33333  0.83333  0.77224  1.0000
  O   O105      1.0  0.83333  0.83333  0.77224  1.0000
  O   O106      1.0  0.50000  0.50000  0.75244  1.0000
  O   O107      1.0  0.50000  1.00000  0.75244  1.0000
  O   O108      1.0  0.83333  0.33333  0.77224  1.0000
  Ce  Ce53      1.0  1.00000  1.00000  0.78214  1.0000
  Ce  Ce54      1.0  0.50000  0.50000  0.78214  1.0000
  Ce  Ce55      1.0  0.50000  1.00000  0.78214  1.0000
  Ce  Ce56      1.0  1.00000  0.50000  0.78214  1.0000
  O   O109      1.0  0.66667  0.66667  0.79204  1.0000
  O   O110      1.0  0.66667  0.16667  0.79204  1.0000
  O   O111      1.0  0.16667  0.16667  0.79204  1.0000
  O   O112      1.0  0.16667  0.66667  0.79204  1.0000
