data_image0
_chemical_formula_structural       Ce3O6Ce3O6Ce3O6Ce2O2Ce3O6Ce3O6Ce3O6CeO4
_chemical_formula_sum              "Ce21 O42"
_cell_length_a       15.4643
_cell_length_b       5.46745
_cell_length_c       105.388
_cell_angle_alpha    90
_cell_angle_beta     90
_cell_angle_gamma    90

_space_group_name_H-M_alt    "P 1"
_space_group_IT_number       1

loop_
  _space_group_symop_operation_xyz
  'x, y, z'

loop_
  _atom_site_type_symbol
  _atom_site_label
  _atom_site_symmetry_multiplicity
  _atom_site_fract_x
  _atom_site_fract_y
  _atom_site_fract_z
  _atom_site_occupancy
  Ce  Ce1       1.0  0.50000  0.00000  0.72928  1.0000
  Ce  Ce2       1.0  0.25000  0.00000  0.72928  1.0000
  Ce  Ce3       1.0  0.37500  0.50000  0.74762  1.0000
  O   O1        1.0  0.50000  0.75000  0.74762  1.0000
  O   O2        1.0  0.25000  0.25000  0.74762  1.0000
  O   O3        1.0  0.37500  0.75000  0.72928  1.0000
  O   O4        1.0  0.25000  0.75000  0.74762  1.0000
  O   O5        1.0  0.50000  0.25000  0.74762  1.0000
  O   O6        1.0  0.37500  0.25000  0.72928  1.0000
  Ce  Ce4       1.0  0.25000  0.00000  0.76596  1.0000
  Ce  Ce5       1.0  0.50000  0.00000  0.76596  1.0000
  Ce  Ce6       1.0  0.37500  0.50000  0.78430  1.0000
  O   O7        1.0  0.25000  0.75000  0.78430  1.0000
  O   O8        1.0  0.50000  0.25000  0.78430  1.0000
  O   O9        1.0  0.37500  0.25000  0.76596  1.0000
  O   O10       1.0  0.50000  0.75000  0.78430  1.0000
  O   O11       1.0  0.25000  0.25000  0.78430  1.0000
  O   O12       1.0  0.37500  0.75000  0.76596  1.0000
  Ce  Ce7       1.0  0.50000  0.00000  0.80264  1.0000
  Ce  Ce8       1.0  0.25000  0.00000  0.80264  1.0000
  Ce  Ce9       1.0  0.37500  0.50000  0.82099  1.0000
  O   O13       1.0  0.50000  0.75000  0.82099  1.0000
  O   O14       1.0  0.25000  0.25000  0.82099  1.0000
  O   O15       1.0  0.37500  0.75000  0.80264  1.0000
  O   O16       1.0  0.25000  0.75000  0.82099  1.0000
  O   O17       1.0  0.50000  0.25000  0.82099  1.0000
  O   O18       1.0  0.37500  0.25000  0.80264  1.0000
  Ce  Ce10      1.0  0.25000  0.00000  0.83933  1.0000
  Ce  Ce11      1.0  0.50000  0.00000  0.83933  1.0000
  O   O19       1.0  0.37500  0.25000  0.83933  1.0000
  O   O20       1.0  0.37500  0.75000  0.83933  1.0000
  Ce  Ce12      1.0  0.75000  0.00000  0.72928  1.0000
  Ce  Ce13      1.0  0.62500  0.50000  0.74762  1.0000
  Ce  Ce14      1.0  0.87500  0.50000  0.74762  1.0000
  O   O21       1.0  0.75000  0.25000  0.74762  1.0000
  O   O22       1.0  0.87500  0.75000  0.72928  1.0000
  O   O23       1.0  0.62500  0.25000  0.72928  1.0000
  O   O24       1.0  0.75000  0.75000  0.74762  1.0000
  O   O25       1.0  0.62500  0.75000  0.72928  1.0000
  O   O26       1.0  0.87500  0.25000  0.72928  1.0000
  Ce  Ce15      1.0  0.75000  0.00000  0.76596  1.0000
  Ce  Ce16      1.0  0.87500  0.50000  0.78430  1.0000
  Ce  Ce17      1.0  0.62500  0.50000  0.78430  1.0000
  O   O27       1.0  0.75000  0.75000  0.78430  1.0000
  O   O28       1.0  0.62500  0.75000  0.76596  1.0000
  O   O29       1.0  0.87500  0.25000  0.76596  1.0000
  O   O30       1.0  0.75000  0.25000  0.78430  1.0000
  O   O31       1.0  0.87500  0.75000  0.76596  1.0000
  O   O32       1.0  0.62500  0.25000  0.76596  1.0000
  Ce  Ce18      1.0  0.75000  0.00000  0.80264  1.0000
  Ce  Ce19      1.0  0.62500  0.50000  0.82099  1.0000
  Ce  Ce20      1.0  0.87500  0.50000  0.82099  1.0000
  O   O33       1.0  0.75000  0.25000  0.82099  1.0000
  O   O34       1.0  0.87500  0.75000  0.80264  1.0000
  O   O35       1.0  0.62500  0.25000  0.80264  1.0000
  O   O36       1.0  0.75000  0.75000  0.82099  1.0000
  O   O37       1.0  0.62500  0.75000  0.80264  1.0000
  O   O38       1.0  0.87500  0.25000  0.80264  1.0000
  Ce  Ce21      1.0  0.75000  0.00000  0.83933  1.0000
  O   O39       1.0  0.62500  0.75000  0.83933  1.0000
  O   O40       1.0  0.87500  0.25000  0.83933  1.0000
  O   O41       1.0  0.87500  0.75000  0.83933  1.0000
  O   O42       1.0  0.62500  0.25000  0.83933  1.0000
