# generated using pymatgen
data_Ce2O3
_symmetry_space_group_name_H-M   P-3m1
_cell_length_a   3.87098395
_cell_length_b   3.87098395
_cell_length_c   5.89577273
_cell_angle_alpha   90.00000000
_cell_angle_beta   90.00000000
_cell_angle_gamma   120.00000000
_symmetry_Int_Tables_number   164
_chemical_formula_structural   Ce2O3
_chemical_formula_sum   'Ce2 O3'
_cell_volume   76.50927856
_cell_formula_units_Z   1
loop_
 _symmetry_equiv_pos_site_id
 _symmetry_equiv_pos_as_xyz
  1  'x, y, z'
  2  '-x, -y, -z'
  3  '-y, x-y, z'
  4  'y, -x+y, -z'
  5  '-x+y, -x, z'
  6  'x-y, x, -z'
  7  'y, x, -z'
  8  '-y, -x, z'
  9  'x-y, -y, -z'
  10  '-x+y, y, z'
  11  '-x, -x+y, -z'
  12  'x, x-y, z'
loop_
 _atom_type_symbol
 _atom_type_oxidation_number
  Ce3+  3.0
  O2-  -2.0
loop_
 _atom_site_type_symbol
 _atom_site_label
 _atom_site_symmetry_multiplicity
 _atom_site_fract_x
 _atom_site_fract_y
 _atom_site_fract_z
 _atom_site_occupancy
  Ce3+  Ce0  2  0.33333333  0.66666667  0.23869228  1
  O2-  O1  2  0.33333333  0.66666667  0.64888838  1
  O2-  O2  1  0.00000000  0.00000000  0.00000000  1
