data_image0
_chemical_formula_structural       Ce2O4Ce2O4Ce2O4Ce2O4Ce2O4Ce2O4Ce2O4Ce2O4
_chemical_formula_sum              "Ce16 O32"
_cell_length_a       10.156
_cell_length_b       10.156
_cell_length_c       7.134
_cell_angle_alpha    90
_cell_angle_beta     90
_cell_angle_gamma    90

_space_group_name_H-M_alt    "P 1"
_space_group_IT_number       1

loop_
  _space_group_symop_operation_xyz
  'x, y, z'

loop_
  _atom_site_type_symbol
  _atom_site_label
  _atom_site_symmetry_multiplicity
  _atom_site_fract_x
  _atom_site_fract_y
  _atom_site_fract_z
  _atom_site_occupancy
  Ce  Ce1       1.0  0.00000  0.00000  0.00000  1.0000
  Ce  Ce2       1.0  0.25279  0.25279  0.25487  1.0000
  O   O1        1.0  0.09472  0.41086  0.25487  1.0000
  O   O2        1.0  0.41086  0.09472  0.25487  1.0000
  O   O3        1.0  0.34750  0.34750  0.00000  1.0000
  O   O4        1.0  0.15807  0.15807  0.00000  1.0000
  Ce  Ce3       1.0  0.00000  0.00000  0.50000  1.0000
  Ce  Ce4       1.0  0.25279  0.25279  0.75487  1.0000
  O   O5        1.0  0.09472  0.41086  0.75487  1.0000
  O   O6        1.0  0.41086  0.09472  0.75487  1.0000
  O   O7        1.0  0.34750  0.34750  0.50000  1.0000
  O   O8        1.0  0.15807  0.15807  0.50000  1.0000
  Ce  Ce5       1.0  0.00000  0.50000  0.00000  1.0000
  Ce  Ce6       1.0  0.25279  0.75279  0.25487  1.0000
  O   O9        1.0  0.09472  0.91086  0.25487  1.0000
  O   O10       1.0  0.41086  0.59472  0.25487  1.0000
  O   O11       1.0  0.34750  0.84750  0.00000  1.0000
  O   O12       1.0  0.15807  0.65807  0.00000  1.0000
  Ce  Ce7       1.0  0.00000  0.50000  0.50000  1.0000
  Ce  Ce8       1.0  0.25279  0.75279  0.75487  1.0000
  O   O13       1.0  0.09472  0.91086  0.75487  1.0000
  O   O14       1.0  0.41086  0.59472  0.75487  1.0000
  O   O15       1.0  0.34750  0.84750  0.50000  1.0000
  O   O16       1.0  0.15807  0.65807  0.50000  1.0000
  Ce  Ce9       1.0  0.50000  0.00000  0.00000  1.0000
  Ce  Ce10      1.0  0.75279  0.25279  0.25487  1.0000
  O   O17       1.0  0.59472  0.41086  0.25487  1.0000
  O   O18       1.0  0.91086  0.09472  0.25487  1.0000
  O   O19       1.0  0.84750  0.34750  0.00000  1.0000
  O   O20       1.0  0.65807  0.15807  0.00000  1.0000
  Ce  Ce11      1.0  0.50000  0.00000  0.50000  1.0000
  Ce  Ce12      1.0  0.75279  0.25279  0.75487  1.0000
  O   O21       1.0  0.59472  0.41086  0.75487  1.0000
  O   O22       1.0  0.91086  0.09472  0.75487  1.0000
  O   O23       1.0  0.84750  0.34750  0.50000  1.0000
  O   O24       1.0  0.65807  0.15807  0.50000  1.0000
  Ce  Ce13      1.0  0.50000  0.50000  0.00000  1.0000
  Ce  Ce14      1.0  0.75279  0.75279  0.25487  1.0000
  O   O25       1.0  0.59472  0.91086  0.25487  1.0000
  O   O26       1.0  0.91086  0.59472  0.25487  1.0000
  O   O27       1.0  0.84750  0.84750  0.00000  1.0000
  O   O28       1.0  0.65807  0.65807  0.00000  1.0000
  Ce  Ce15      1.0  0.50000  0.50000  0.50000  1.0000
  Ce  Ce16      1.0  0.75279  0.75279  0.75487  1.0000
  O   O29       1.0  0.59472  0.91086  0.75487  1.0000
  O   O30       1.0  0.91086  0.59472  0.75487  1.0000
  O   O31       1.0  0.84750  0.84750  0.50000  1.0000
  O   O32       1.0  0.65807  0.65807  0.50000  1.0000
