# generated using pymatgen
data_CeO2
_symmetry_space_group_name_H-M   P4_2/mnm
_cell_length_a   5.13465700
_cell_length_b   5.13465700
_cell_length_c   3.63642000
_cell_angle_alpha   90.00000000
_cell_angle_beta   90.00000000
_cell_angle_gamma   90.00000000
_symmetry_Int_Tables_number   136
_chemical_formula_structural   CeO2
_chemical_formula_sum   'Ce2 O4'
_cell_volume   95.87313149
_cell_formula_units_Z   2
loop_
 _symmetry_equiv_pos_site_id
 _symmetry_equiv_pos_as_xyz
  1  'x, y, z'
  2  '-x, -y, -z'
  3  '-y+1/2, x+1/2, z+1/2'
  4  'y+1/2, -x+1/2, -z+1/2'
  5  '-x, -y, z'
  6  'x, y, -z'
  7  'y+1/2, -x+1/2, z+1/2'
  8  '-y+1/2, x+1/2, -z+1/2'
  9  'x+1/2, -y+1/2, -z+1/2'
  10  '-x+1/2, y+1/2, z+1/2'
  11  '-y, -x, -z'
  12  'y, x, z'
  13  '-x+1/2, y+1/2, -z+1/2'
  14  'x+1/2, -y+1/2, z+1/2'
  15  'y, x, -z'
  16  '-y, -x, z'
loop_
 _atom_type_symbol
 _atom_type_oxidation_number
  Ce4+  4.0
  O2-  -2.0
loop_
 _atom_site_type_symbol
 _atom_site_label
 _atom_site_symmetry_multiplicity
 _atom_site_fract_x
 _atom_site_fract_y
 _atom_site_fract_z
 _atom_site_occupancy
  Ce4+  Ce0  2  0.00000000  0.00000000  0.00000000  1
  O2-  O1  4  0.18734000  0.81266000  0.50000000  1
